version 2
run CCH_SCH_Safety_B_100Bytes_Q_1-0-20181029-04:01:26-11856
attr configname CCH_SCH_Safety_B_100Bytes_Q_1
attr datetime 20181029-04:01:26
attr experiment CCH_SCH_Safety_B_100Bytes_Q_1
attr inifile omnetpp.ini
attr iterationvars $0=1
attr iterationvarsf 1-
attr measurement $0=1
attr network vanets.RSUScenario
attr processid 11856
attr repetition 0
attr replication #0
attr resultdir results
attr runnumber 0
attr seedset 0
param **.debug false
param **.coreDebug false
param *.annotations.draw false
param *.rsu[*].appl.beaconLengthBits 800bit
param *.node[*].appl.beaconLengthBits 800bit
param *.metricsApplication.appl.beaconLengthBits 800bit
param *.node[*].appl.sendBeacons true
param *.rsu[*].appl.sendBeacons false
param *.metricsApplicaiton[*].appl.sendBeacons false
param *.node[*].appl.dataOnSch true
param *.rsu[*].appl.dataOnSch false
param *.metricsApplication[*].appl.dataOnSch false
param *.node[*].appl.sendData true
param *.rsu[*].appl.sendData true
param *.metricsApplication[*].appl.sendData false
param *.node[*].appl.beaconInterval 0.1s
param *.rsu[*].appl.beaconInterval 0.1s
param *.metricsApplication[*].appl.beaconInterval 0.1s
param *.node[*].appl.beaconPriority 3
param *.rsu[*].appl.beaconPriority 3
param *.metricsApplication[*].appl.beaconPriority 3
param *.node[*].appl.dataPriority 2
param *.rsu[*].appl.dataPriority 2
param *.metricsApplication.appl.beaconPriority 2
param *.**.nic.mac1609_4.queueSize 1
param *.**.nic.mac1609_4.useServiceChannel true
param *.manager.launchConfig "xmldoc(\"erlangen.launchd.xml\")"
param **.debug false
param **.coreDebug false
param *.playgroundSizeX 2500m
param *.playgroundSizeY 2500m
param *.playgroundSizeZ 50m
param *.annotations.draw false
param *.obstacles.debug false
param *.obstacles.obstacles "xmldoc(\"config.xml\", \"//AnalogueModel[@type='SimpleObstacleShadowing']/obstacles\")"
param *.world.useTorus false
param *.world.use2D false
param *.manager.updateInterval 1s
param *.manager.host "\"localhost\""
param *.manager.port 9999
param *.manager.autoShutdown true
param *.manager.launchConfig "xmldoc(\"erlangen.launchd.xml\")"
param *.manager.moduleType "\"vanets.CarWithMetrics\""
param *.manager.moduleName "\"node\""
param *.manager.moduleDisplayString "\"\""
param *.manager.margin 25
param *.manager.numVehicles 5
param *.manager.debug true
param *.rsu[0].mobility.x 2000
param *.rsu[0].mobility.y 2000
param *.rsu[0].mobility.z 3
param *.rsu[*].applType "\"TraCIDemoRSU11p\""
param *.rsu[*].appl.headerLength "80 bit"
param *.rsu[*].appl.sendBeacons false
param *.rsu[*].appl.dataOnSch false
param *.rsu[*].appl.beaconInterval 1s
param *.rsu[*].appl.beaconUserPriority 7
param *.rsu[*].appl.dataUserPriority 5
param *.metricsApplication.applType "\"TraCIDemoRSU11p\""
param *.metricsApplication.appl.debug false
param *.metricsApplication.appl.headerLength "80 bit"
param *.metricsApplication.appl.sendBeacons false
param *.metricsApplication.appl.dataOnSch false
param *.metricsApplication.appl.beaconInterval 1s
param *.metricsApplication.appl.beaconUserPriority 7
param *.metricsApplication.appl.dataUserPriority 2
param *.connectionManager.sendDirect true
param *.connectionManager.maxInterfDist 2600m
param *.connectionManager.drawMaxIntfDist false
param *.**.nic.mac1609_4.useServiceChannel false
param *.**.nic.mac1609_4.txPower 100mW
param *.**.nic.mac1609_4.bitrate 6Mbps
param *.**.nic.phy80211p.sensitivity -89dBm
param *.**.nic.mac1609_4.queueSize 1
param *.**.nic.phy80211p.useThermalNoise true
param *.**.nic.phy80211p.thermalNoise -110dBm
param *.**.nic.phy80211p.decider "xmldoc(\"config.xml\", \"/root/Decider[@type='Decider80211p']\")"
param *.**.nic.phy80211p.decider.collectCollisionStats true
param *.**.nic.phy80211p.analogueModels "xmldoc(\"config.xml\")"
param *.**.nic.phy80211p.usePropagationDelay true
param *.**.nic.phy80211p.collectCollisionStatistics true
param *.**.nic.phy80211p.antenna "xmldoc(\"antenna.xml\", \"/root/Antenna[@id='monopole']\")"
param *.node[*].applType "\"TraCIDemo11p\""
param *.node[*].appl.headerLength "80 bit"
param *.node[*].appl.sendBeacons false
param *.node[*].appl.dataOnSch false
param *.node[*].appl.beaconInterval 1s
param *.node[*].veinsmobilityType.debug true
param *.node[*].veinsmobility.x 0
param *.node[*].veinsmobility.y 0
param *.node[*].veinsmobility.z 1.895
param *.node[*0].veinsmobility.accidentCount 1
param *.node[*0].veinsmobility.accidentStart 10s
param *.node[*0].veinsmobility.accidentDuration 30s

scalar RSUScenario.node[1].appl generatedWSMs 1
scalar RSUScenario.node[1].appl receivedWSMs 34
scalar RSUScenario.node[1].appl generatedBSMs 176243
scalar RSUScenario.node[1].appl receivedBSMs 132304
scalar RSUScenario.node[1].appl generatedWSAs 0
scalar RSUScenario.node[1].appl receivedWSAs 0
scalar RSUScenario.node[1].appl beaconInterval 0.1
scalar RSUScenario.node[1].nic.phy80211p busyTime 0.65751993349974
scalar RSUScenario.node[1].nic.phy80211p ncollisions 72203
scalar RSUScenario.node[1].nic.mac1609_4 throughputMetricMac 884.43683369228
scalar RSUScenario.node[1].nic.mac1609_4 throughputMbps 0.77835531264059
scalar RSUScenario.node[1].nic.mac1609_4 throughputControlMbps 0
scalar RSUScenario.node[1].nic.mac1609_4 receivedFramesLowerMsg 132338
scalar RSUScenario.node[1].nic.mac1609_4 receivedBitsLowerPackets 0
scalar RSUScenario.node[1].nic.mac1609_4 receivedBitsLoserWsm 0
scalar RSUScenario.node[1].nic.mac1609_4 packetsNotForMe 0
scalar RSUScenario.node[1].nic.mac1609_4 receivedTotalBits 116465056
scalar RSUScenario.node[1].nic.mac1609_4 collisionsPktNonDecoded 0
scalar RSUScenario.node[1].nic.mac1609_4 chUtilizationCCH 11.409037
scalar RSUScenario.node[1].nic.mac1609_4 chUtilizationSCH1 0
scalar RSUScenario.node[1].nic.mac1609_4 chUtilizationSCH2 0
scalar RSUScenario.node[1].nic.mac1609_4 chUtilizationSCH3 0.000465
scalar RSUScenario.node[1].nic.mac1609_4 chUtilizationSCH4 0
scalar RSUScenario.node[1].nic.mac1609_4 chUtilizationHPPS 0
scalar RSUScenario.node[1].nic.mac1609_4 chUtilizationCRIT_SOL 0
scalar RSUScenario.node[1].nic.mac1609_4 previousSignalQualityCCH 100
scalar RSUScenario.node[1].nic.mac1609_4 previousSignalQualitySCH1 0
scalar RSUScenario.node[1].nic.mac1609_4 previousSignalQualitySCH2 0
scalar RSUScenario.node[1].nic.mac1609_4 previousSignalQualitySCH3 100
scalar RSUScenario.node[1].nic.mac1609_4 previousSignalQualitySCH4 0
scalar RSUScenario.node[1].nic.mac1609_4 chPacketsCCH 91315
scalar RSUScenario.node[1].nic.mac1609_4 chPacketsSCH1 0
scalar RSUScenario.node[1].nic.mac1609_4 chPacketsSCH2 0
scalar RSUScenario.node[1].nic.mac1609_4 chPacketsSCH3 2
scalar RSUScenario.node[1].nic.mac1609_4 chPacketsSCH4 0
scalar RSUScenario.node[1].nic.mac1609_4 numberOfNeighbors 1
scalar RSUScenario.node[1].nic.mac1609_4 ReceivedUnicastPackets 0
scalar RSUScenario.node[1].nic.mac1609_4 ReceivedBroadcasts 132338
scalar RSUScenario.node[1].nic.mac1609_4 SentPackets 46094
scalar RSUScenario.node[1].nic.mac1609_4 SentAcknowledgements 0
scalar RSUScenario.node[1].nic.mac1609_4 SNIRLostPackets 369737
scalar RSUScenario.node[1].nic.mac1609_4 RXTXLostPackets 94739
scalar RSUScenario.node[1].nic.mac1609_4 TotalLostPackets 464476
scalar RSUScenario.node[1].nic.mac1609_4 DroppedPacketsInMac 130149
scalar RSUScenario.node[1].nic.mac1609_4 TooLittleTime 1110
scalar RSUScenario.node[1].nic.mac1609_4 TimesIntoBackoff 74088
scalar RSUScenario.node[1].nic.mac1609_4 SlotsBackoff 109185
scalar RSUScenario.node[1].nic.mac1609_4 NumInternalContention 0
scalar RSUScenario.node[1].nic.mac1609_4 totalBusyTime 49.106224101346
scalar RSUScenario.node[1].nic.mac1609_4 throughputMetricMac:last 884.43683369228
attr source throughputSignalMac
attr title "throughputMetricMac, last"
scalar RSUScenario.node[1].nic.mac1609_4 throughputMetricMac:count 132338
attr source throughputSignalMac
attr title "throughputMetricMac, count"
scalar RSUScenario.node[1].nic.mac1609_4 throughputMetricMac:sum 109333381.60523
attr source throughputSignalMac
attr title "throughputMetricMac, sum"
scalar RSUScenario.node[1].nic.mac1609_4 throughputMetricMac:mean 826.16770394922
attr source throughputSignalMac
attr title "throughputMetricMac, mean"
scalar RSUScenario.node[1].veinsmobility startTime 3000
scalar RSUScenario.node[1].veinsmobility totalTime 146000
scalar RSUScenario.node[1].veinsmobility stopTime 149629
scalar RSUScenario.node[1].veinsmobility minSpeed 1.3201798767518
scalar RSUScenario.node[1].veinsmobility maxSpeed 1.3886964615409
scalar RSUScenario.node[1].veinsmobility totalDistance 197.53165597394
scalar RSUScenario.node[1].veinsmobility totalCO2Emission 170.4643846673
scalar RSUScenario.node[4].appl generatedWSMs 1
scalar RSUScenario.node[4].appl receivedWSMs 34
scalar RSUScenario.node[4].appl generatedBSMs 180091
scalar RSUScenario.node[4].appl receivedBSMs 136031
scalar RSUScenario.node[4].appl generatedWSAs 0
scalar RSUScenario.node[4].appl receivedWSAs 0
scalar RSUScenario.node[4].appl beaconInterval 0.1
scalar RSUScenario.node[4].nic.phy80211p busyTime 0.69551020691875
scalar RSUScenario.node[4].nic.phy80211p ncollisions 66483
scalar RSUScenario.node[4].nic.mac1609_4 throughputMetricMac 909.34499382265
scalar RSUScenario.node[4].nic.mac1609_4 throughputMbps 0.80027449355521
scalar RSUScenario.node[4].nic.mac1609_4 throughputControlMbps 0
scalar RSUScenario.node[4].nic.mac1609_4 receivedFramesLowerMsg 136065
scalar RSUScenario.node[4].nic.mac1609_4 receivedBitsLowerPackets 0
scalar RSUScenario.node[4].nic.mac1609_4 receivedBitsLoserWsm 0
scalar RSUScenario.node[4].nic.mac1609_4 packetsNotForMe 0
scalar RSUScenario.node[4].nic.mac1609_4 receivedTotalBits 119744816
scalar RSUScenario.node[4].nic.mac1609_4 collisionsPktNonDecoded 0
scalar RSUScenario.node[4].nic.mac1609_4 chUtilizationCCH 11.23858
scalar RSUScenario.node[4].nic.mac1609_4 chUtilizationSCH1 0
scalar RSUScenario.node[4].nic.mac1609_4 chUtilizationSCH2 0.000465
scalar RSUScenario.node[4].nic.mac1609_4 chUtilizationSCH3 0
scalar RSUScenario.node[4].nic.mac1609_4 chUtilizationSCH4 0
scalar RSUScenario.node[4].nic.mac1609_4 chUtilizationHPPS 0
scalar RSUScenario.node[4].nic.mac1609_4 chUtilizationCRIT_SOL 0
scalar RSUScenario.node[4].nic.mac1609_4 previousSignalQualityCCH 100
scalar RSUScenario.node[4].nic.mac1609_4 previousSignalQualitySCH1 0
scalar RSUScenario.node[4].nic.mac1609_4 previousSignalQualitySCH2 100
scalar RSUScenario.node[4].nic.mac1609_4 previousSignalQualitySCH3 0
scalar RSUScenario.node[4].nic.mac1609_4 previousSignalQualitySCH4 0
scalar RSUScenario.node[4].nic.mac1609_4 chPacketsCCH 90713
scalar RSUScenario.node[4].nic.mac1609_4 chPacketsSCH1 0
scalar RSUScenario.node[4].nic.mac1609_4 chPacketsSCH2 2
scalar RSUScenario.node[4].nic.mac1609_4 chPacketsSCH3 0
scalar RSUScenario.node[4].nic.mac1609_4 chPacketsSCH4 0
scalar RSUScenario.node[4].nic.mac1609_4 numberOfNeighbors 1
scalar RSUScenario.node[4].nic.mac1609_4 ReceivedUnicastPackets 0
scalar RSUScenario.node[4].nic.mac1609_4 ReceivedBroadcasts 136065
scalar RSUScenario.node[4].nic.mac1609_4 SentPackets 45749
scalar RSUScenario.node[4].nic.mac1609_4 SentAcknowledgements 0
scalar RSUScenario.node[4].nic.mac1609_4 SNIRLostPackets 362436
scalar RSUScenario.node[4].nic.mac1609_4 RXTXLostPackets 96912
scalar RSUScenario.node[4].nic.mac1609_4 TotalLostPackets 459348
scalar RSUScenario.node[4].nic.mac1609_4 DroppedPacketsInMac 134343
scalar RSUScenario.node[4].nic.mac1609_4 TooLittleTime 410
scalar RSUScenario.node[4].nic.mac1609_4 TimesIntoBackoff 73823
scalar RSUScenario.node[4].nic.mac1609_4 SlotsBackoff 109248
scalar RSUScenario.node[4].nic.mac1609_4 NumInternalContention 0
scalar RSUScenario.node[4].nic.mac1609_4 totalBusyTime 48.035347640565
scalar RSUScenario.node[4].nic.mac1609_4 throughputMetricMac:last 909.34499382265
attr source throughputSignalMac
attr title "throughputMetricMac, last"
scalar RSUScenario.node[4].nic.mac1609_4 throughputMetricMac:count 136065
attr source throughputSignalMac
attr title "throughputMetricMac, count"
scalar RSUScenario.node[4].nic.mac1609_4 throughputMetricMac:sum 112269050.81634
attr source throughputSignalMac
attr title "throughputMetricMac, sum"
scalar RSUScenario.node[4].nic.mac1609_4 throughputMetricMac:mean 825.11337093549
attr source throughputSignalMac
attr title "throughputMetricMac, mean"
scalar RSUScenario.node[4].veinsmobility startTime 12000
scalar RSUScenario.node[4].veinsmobility totalTime 137000
scalar RSUScenario.node[4].veinsmobility stopTime 149629
scalar RSUScenario.node[4].veinsmobility minSpeed 0.82437053541553
scalar RSUScenario.node[4].veinsmobility maxSpeed 1.3880729673485
scalar RSUScenario.node[4].veinsmobility totalDistance 183.56582331748
scalar RSUScenario.node[4].veinsmobility totalCO2Emission 159.98885089049
scalar RSUScenario.node[0].appl generatedWSMs 3
scalar RSUScenario.node[0].appl receivedWSMs 24
scalar RSUScenario.node[0].appl generatedBSMs 82197
scalar RSUScenario.node[0].appl receivedBSMs 60235
scalar RSUScenario.node[0].appl generatedWSAs 0
scalar RSUScenario.node[0].appl receivedWSAs 0
scalar RSUScenario.node[0].appl beaconInterval 0.1
scalar RSUScenario.node[0].nic.phy80211p busyTime 0.28382928198581
scalar RSUScenario.node[0].nic.phy80211p ncollisions 59596
scalar RSUScenario.node[0].nic.mac1609_4 throughputMetricMac 456.67967410511
scalar RSUScenario.node[0].nic.mac1609_4 throughputMbps 0.40191885583922
scalar RSUScenario.node[0].nic.mac1609_4 throughputControlMbps 0
scalar RSUScenario.node[0].nic.mac1609_4 receivedFramesLowerMsg 60259
scalar RSUScenario.node[0].nic.mac1609_4 receivedBitsLowerPackets 0
scalar RSUScenario.node[0].nic.mac1609_4 receivedBitsLoserWsm 0
scalar RSUScenario.node[0].nic.mac1609_4 packetsNotForMe 0
scalar RSUScenario.node[0].nic.mac1609_4 receivedTotalBits 53033296
scalar RSUScenario.node[0].nic.mac1609_4 collisionsPktNonDecoded 0
scalar RSUScenario.node[0].nic.mac1609_4 chUtilizationCCH 7.288209
scalar RSUScenario.node[0].nic.mac1609_4 chUtilizationSCH1 0.000465
scalar RSUScenario.node[0].nic.mac1609_4 chUtilizationSCH2 0.00093
scalar RSUScenario.node[0].nic.mac1609_4 chUtilizationSCH3 0
scalar RSUScenario.node[0].nic.mac1609_4 chUtilizationSCH4 0
scalar RSUScenario.node[0].nic.mac1609_4 chUtilizationHPPS 0
scalar RSUScenario.node[0].nic.mac1609_4 chUtilizationCRIT_SOL 0
scalar RSUScenario.node[0].nic.mac1609_4 previousSignalQualityCCH 100
scalar RSUScenario.node[0].nic.mac1609_4 previousSignalQualitySCH1 100
scalar RSUScenario.node[0].nic.mac1609_4 previousSignalQualitySCH2 100
scalar RSUScenario.node[0].nic.mac1609_4 previousSignalQualitySCH3 0
scalar RSUScenario.node[0].nic.mac1609_4 previousSignalQualitySCH4 0
scalar RSUScenario.node[0].nic.mac1609_4 chPacketsCCH 52794
scalar RSUScenario.node[0].nic.mac1609_4 chPacketsSCH1 2
scalar RSUScenario.node[0].nic.mac1609_4 chPacketsSCH2 4
scalar RSUScenario.node[0].nic.mac1609_4 chPacketsSCH3 0
scalar RSUScenario.node[0].nic.mac1609_4 chPacketsSCH4 0
scalar RSUScenario.node[0].nic.mac1609_4 numberOfNeighbors 1
scalar RSUScenario.node[0].nic.mac1609_4 ReceivedUnicastPackets 0
scalar RSUScenario.node[0].nic.mac1609_4 ReceivedBroadcasts 60259
scalar RSUScenario.node[0].nic.mac1609_4 SentPackets 26772
scalar RSUScenario.node[0].nic.mac1609_4 SentAcknowledgements 0
scalar RSUScenario.node[0].nic.mac1609_4 SNIRLostPackets 159452
scalar RSUScenario.node[0].nic.mac1609_4 RXTXLostPackets 27461
scalar RSUScenario.node[0].nic.mac1609_4 TotalLostPackets 186913
scalar RSUScenario.node[0].nic.mac1609_4 DroppedPacketsInMac 55428
scalar RSUScenario.node[0].nic.mac1609_4 TooLittleTime 499
scalar RSUScenario.node[0].nic.mac1609_4 TimesIntoBackoff 40643
scalar RSUScenario.node[0].nic.mac1609_4 SlotsBackoff 60304
scalar RSUScenario.node[0].nic.mac1609_4 NumInternalContention 0
scalar RSUScenario.node[0].nic.mac1609_4 totalBusyTime 34.209236554313
scalar RSUScenario.node[0].nic.mac1609_4 throughputMetricMac:last 456.67967410511
attr source throughputSignalMac
attr title "throughputMetricMac, last"
scalar RSUScenario.node[0].nic.mac1609_4 throughputMetricMac:count 60259
attr source throughputSignalMac
attr title "throughputMetricMac, count"
scalar RSUScenario.node[0].nic.mac1609_4 throughputMetricMac:sum 33549130.222189
attr source throughputSignalMac
attr title "throughputMetricMac, sum"
scalar RSUScenario.node[0].nic.mac1609_4 throughputMetricMac:mean 556.74887107634
attr source throughputSignalMac
attr title "throughputMetricMac, mean"
scalar RSUScenario.node[0].veinsmobility startTime 1000
scalar RSUScenario.node[0].veinsmobility totalTime 148000
scalar RSUScenario.node[0].veinsmobility stopTime 149629
scalar RSUScenario.node[0].veinsmobility minSpeed 0
scalar RSUScenario.node[0].veinsmobility maxSpeed 13.998128671225
scalar RSUScenario.node[0].veinsmobility totalDistance 1487.0686603565
scalar RSUScenario.node[0].veinsmobility totalCO2Emission 348.62645622766
scalar RSUScenario.node[5].appl generatedWSMs 1
scalar RSUScenario.node[5].appl receivedWSMs 34
scalar RSUScenario.node[5].appl generatedBSMs 163860
scalar RSUScenario.node[5].appl receivedBSMs 124711
scalar RSUScenario.node[5].appl generatedWSAs 0
scalar RSUScenario.node[5].appl receivedWSAs 0
scalar RSUScenario.node[5].appl beaconInterval 0.1
scalar RSUScenario.node[5].nic.phy80211p busyTime 0.71787513853231
scalar RSUScenario.node[5].nic.phy80211p ncollisions 73327
scalar RSUScenario.node[5].nic.mac1609_4 throughputMetricMac 833.69155362524
scalar RSUScenario.node[5].nic.mac1609_4 throughputMbps 0.73369946618185
scalar RSUScenario.node[5].nic.mac1609_4 throughputControlMbps 0
scalar RSUScenario.node[5].nic.mac1609_4 receivedFramesLowerMsg 124745
scalar RSUScenario.node[5].nic.mac1609_4 receivedBitsLowerPackets 0
scalar RSUScenario.node[5].nic.mac1609_4 receivedBitsLoserWsm 0
scalar RSUScenario.node[5].nic.mac1609_4 packetsNotForMe 0
scalar RSUScenario.node[5].nic.mac1609_4 receivedTotalBits 109783216
scalar RSUScenario.node[5].nic.mac1609_4 collisionsPktNonDecoded 0
scalar RSUScenario.node[5].nic.mac1609_4 chUtilizationCCH 10.466207
scalar RSUScenario.node[5].nic.mac1609_4 chUtilizationSCH1 0
scalar RSUScenario.node[5].nic.mac1609_4 chUtilizationSCH2 0.000465
scalar RSUScenario.node[5].nic.mac1609_4 chUtilizationSCH3 0
scalar RSUScenario.node[5].nic.mac1609_4 chUtilizationSCH4 0
scalar RSUScenario.node[5].nic.mac1609_4 chUtilizationHPPS 0
scalar RSUScenario.node[5].nic.mac1609_4 chUtilizationCRIT_SOL 0
scalar RSUScenario.node[5].nic.mac1609_4 previousSignalQualityCCH 100
scalar RSUScenario.node[5].nic.mac1609_4 previousSignalQualitySCH1 0
scalar RSUScenario.node[5].nic.mac1609_4 previousSignalQualitySCH2 100
scalar RSUScenario.node[5].nic.mac1609_4 previousSignalQualitySCH3 0
scalar RSUScenario.node[5].nic.mac1609_4 previousSignalQualitySCH4 0
scalar RSUScenario.node[5].nic.mac1609_4 chPacketsCCH 84689
scalar RSUScenario.node[5].nic.mac1609_4 chPacketsSCH1 0
scalar RSUScenario.node[5].nic.mac1609_4 chPacketsSCH2 2
scalar RSUScenario.node[5].nic.mac1609_4 chPacketsSCH3 0
scalar RSUScenario.node[5].nic.mac1609_4 chPacketsSCH4 0
scalar RSUScenario.node[5].nic.mac1609_4 numberOfNeighbors 1
scalar RSUScenario.node[5].nic.mac1609_4 ReceivedUnicastPackets 0
scalar RSUScenario.node[5].nic.mac1609_4 ReceivedBroadcasts 124745
scalar RSUScenario.node[5].nic.mac1609_4 SentPackets 42720
scalar RSUScenario.node[5].nic.mac1609_4 SentAcknowledgements 0
scalar RSUScenario.node[5].nic.mac1609_4 SNIRLostPackets 371093
scalar RSUScenario.node[5].nic.mac1609_4 RXTXLostPackets 93644
scalar RSUScenario.node[5].nic.mac1609_4 TotalLostPackets 464737
scalar RSUScenario.node[5].nic.mac1609_4 DroppedPacketsInMac 121141
scalar RSUScenario.node[5].nic.mac1609_4 TooLittleTime 415
scalar RSUScenario.node[5].nic.mac1609_4 TimesIntoBackoff 69292
scalar RSUScenario.node[5].nic.mac1609_4 SlotsBackoff 102078
scalar RSUScenario.node[5].nic.mac1609_4 NumInternalContention 0
scalar RSUScenario.node[5].nic.mac1609_4 totalBusyTime 46.589797522574
scalar RSUScenario.node[5].nic.mac1609_4 throughputMetricMac:last 833.69155362524
attr source throughputSignalMac
attr title "throughputMetricMac, last"
scalar RSUScenario.node[5].nic.mac1609_4 throughputMetricMac:count 124745
attr source throughputSignalMac
attr title "throughputMetricMac, count"
scalar RSUScenario.node[5].nic.mac1609_4 throughputMetricMac:sum 90947766.361997
attr source throughputSignalMac
attr title "throughputMetricMac, sum"
scalar RSUScenario.node[5].nic.mac1609_4 throughputMetricMac:mean 729.06943253836
attr source throughputSignalMac
attr title "throughputMetricMac, mean"
scalar RSUScenario.node[5].veinsmobility startTime 17000
scalar RSUScenario.node[5].veinsmobility totalTime 132000
scalar RSUScenario.node[5].veinsmobility stopTime 149629
scalar RSUScenario.node[5].veinsmobility minSpeed 0.93256845913125
scalar RSUScenario.node[5].veinsmobility maxSpeed 1.3985669438027
scalar RSUScenario.node[5].veinsmobility totalDistance 177.24676246177
scalar RSUScenario.node[5].veinsmobility totalCO2Emission 154.09139732478
scalar RSUScenario.node[14].appl generatedWSMs 1
scalar RSUScenario.node[14].appl receivedWSMs 18
scalar RSUScenario.node[14].appl generatedBSMs 53937
scalar RSUScenario.node[14].appl receivedBSMs 40752
scalar RSUScenario.node[14].appl generatedWSAs 0
scalar RSUScenario.node[14].appl receivedWSAs 0
scalar RSUScenario.node[14].appl beaconInterval 0.1
scalar RSUScenario.node[14].nic.phy80211p busyTime 0.96676053233729
scalar RSUScenario.node[14].nic.phy80211p ncollisions 59811
scalar RSUScenario.node[14].nic.mac1609_4 throughputMetricMac 272.47268107587
scalar RSUScenario.node[14].nic.mac1609_4 throughputMbps 0.23980290587234
scalar RSUScenario.node[14].nic.mac1609_4 throughputControlMbps 0
scalar RSUScenario.node[14].nic.mac1609_4 receivedFramesLowerMsg 40770
scalar RSUScenario.node[14].nic.mac1609_4 receivedBitsLowerPackets 0
scalar RSUScenario.node[14].nic.mac1609_4 receivedBitsLoserWsm 0
scalar RSUScenario.node[14].nic.mac1609_4 packetsNotForMe 0
scalar RSUScenario.node[14].nic.mac1609_4 receivedTotalBits 35881632
scalar RSUScenario.node[14].nic.mac1609_4 collisionsPktNonDecoded 0
scalar RSUScenario.node[14].nic.mac1609_4 chUtilizationCCH 3.893598
scalar RSUScenario.node[14].nic.mac1609_4 chUtilizationSCH1 0.000233
scalar RSUScenario.node[14].nic.mac1609_4 chUtilizationSCH2 0
scalar RSUScenario.node[14].nic.mac1609_4 chUtilizationSCH3 0
scalar RSUScenario.node[14].nic.mac1609_4 chUtilizationSCH4 0
scalar RSUScenario.node[14].nic.mac1609_4 chUtilizationHPPS 0
scalar RSUScenario.node[14].nic.mac1609_4 chUtilizationCRIT_SOL 0
scalar RSUScenario.node[14].nic.mac1609_4 previousSignalQualityCCH 100
scalar RSUScenario.node[14].nic.mac1609_4 previousSignalQualitySCH1 100
scalar RSUScenario.node[14].nic.mac1609_4 previousSignalQualitySCH2 0
scalar RSUScenario.node[14].nic.mac1609_4 previousSignalQualitySCH3 0
scalar RSUScenario.node[14].nic.mac1609_4 previousSignalQualitySCH4 0
scalar RSUScenario.node[14].nic.mac1609_4 chPacketsCCH 31514
scalar RSUScenario.node[14].nic.mac1609_4 chPacketsSCH1 1
scalar RSUScenario.node[14].nic.mac1609_4 chPacketsSCH2 0
scalar RSUScenario.node[14].nic.mac1609_4 chPacketsSCH3 0
scalar RSUScenario.node[14].nic.mac1609_4 chPacketsSCH4 0
scalar RSUScenario.node[14].nic.mac1609_4 numberOfNeighbors 1
scalar RSUScenario.node[14].nic.mac1609_4 ReceivedUnicastPackets 0
scalar RSUScenario.node[14].nic.mac1609_4 ReceivedBroadcasts 40770
scalar RSUScenario.node[14].nic.mac1609_4 SentPackets 15967
scalar RSUScenario.node[14].nic.mac1609_4 SentAcknowledgements 0
scalar RSUScenario.node[14].nic.mac1609_4 SNIRLostPackets 279575
scalar RSUScenario.node[14].nic.mac1609_4 RXTXLostPackets 49879
scalar RSUScenario.node[14].nic.mac1609_4 TotalLostPackets 329454
scalar RSUScenario.node[14].nic.mac1609_4 DroppedPacketsInMac 37970
scalar RSUScenario.node[14].nic.mac1609_4 TooLittleTime 355
scalar RSUScenario.node[14].nic.mac1609_4 TimesIntoBackoff 26320
scalar RSUScenario.node[14].nic.mac1609_4 SlotsBackoff 39064
scalar RSUScenario.node[14].nic.mac1609_4 NumInternalContention 0
scalar RSUScenario.node[14].nic.mac1609_4 totalBusyTime 22.561469243794
scalar RSUScenario.node[14].nic.mac1609_4 throughputMetricMac:last 272.47268107587
attr source throughputSignalMac
attr title "throughputMetricMac, last"
scalar RSUScenario.node[14].nic.mac1609_4 throughputMetricMac:count 40770
attr source throughputSignalMac
attr title "throughputMetricMac, count"
scalar RSUScenario.node[14].nic.mac1609_4 throughputMetricMac:sum 6638108.1520529
attr source throughputSignalMac
attr title "throughputMetricMac, sum"
scalar RSUScenario.node[14].nic.mac1609_4 throughputMetricMac:mean 162.81844866453
attr source throughputSignalMac
attr title "throughputMetricMac, mean"
scalar RSUScenario.node[14].veinsmobility startTime 86000
scalar RSUScenario.node[14].veinsmobility totalTime 63000
scalar RSUScenario.node[14].veinsmobility stopTime 149629
scalar RSUScenario.node[14].veinsmobility minSpeed 0.44972407071793
scalar RSUScenario.node[14].veinsmobility maxSpeed 7.1334462066043
scalar RSUScenario.node[14].veinsmobility totalDistance 115.05878515066
scalar RSUScenario.node[14].veinsmobility totalCO2Emission 74.86638001858
scalar RSUScenario.node[15].appl generatedWSMs 1
scalar RSUScenario.node[15].appl receivedWSMs 18
scalar RSUScenario.node[15].appl generatedBSMs 52288
scalar RSUScenario.node[15].appl receivedBSMs 39401
scalar RSUScenario.node[15].appl generatedWSAs 0
scalar RSUScenario.node[15].appl receivedWSAs 0
scalar RSUScenario.node[15].appl beaconInterval 0.1
scalar RSUScenario.node[15].nic.phy80211p busyTime 0.97339942248544
scalar RSUScenario.node[15].nic.phy80211p ncollisions 57958
scalar RSUScenario.node[15].nic.mac1609_4 throughputMetricMac 263.44372369248
scalar RSUScenario.node[15].nic.mac1609_4 throughputMbps 0.23185742337494
scalar RSUScenario.node[15].nic.mac1609_4 throughputControlMbps 0
scalar RSUScenario.node[15].nic.mac1609_4 receivedFramesLowerMsg 39419
scalar RSUScenario.node[15].nic.mac1609_4 receivedBitsLowerPackets 0
scalar RSUScenario.node[15].nic.mac1609_4 receivedBitsLoserWsm 0
scalar RSUScenario.node[15].nic.mac1609_4 packetsNotForMe 0
scalar RSUScenario.node[15].nic.mac1609_4 receivedTotalBits 34692752
scalar RSUScenario.node[15].nic.mac1609_4 collisionsPktNonDecoded 0
scalar RSUScenario.node[15].nic.mac1609_4 chUtilizationCCH 3.755872
scalar RSUScenario.node[15].nic.mac1609_4 chUtilizationSCH1 0.000233
scalar RSUScenario.node[15].nic.mac1609_4 chUtilizationSCH2 0
scalar RSUScenario.node[15].nic.mac1609_4 chUtilizationSCH3 0
scalar RSUScenario.node[15].nic.mac1609_4 chUtilizationSCH4 0
scalar RSUScenario.node[15].nic.mac1609_4 chUtilizationHPPS 0
scalar RSUScenario.node[15].nic.mac1609_4 chUtilizationCRIT_SOL 0
scalar RSUScenario.node[15].nic.mac1609_4 previousSignalQualityCCH 100
scalar RSUScenario.node[15].nic.mac1609_4 previousSignalQualitySCH1 100
scalar RSUScenario.node[15].nic.mac1609_4 previousSignalQualitySCH2 0
scalar RSUScenario.node[15].nic.mac1609_4 previousSignalQualitySCH3 0
scalar RSUScenario.node[15].nic.mac1609_4 previousSignalQualitySCH4 0
scalar RSUScenario.node[15].nic.mac1609_4 chPacketsCCH 30603
scalar RSUScenario.node[15].nic.mac1609_4 chPacketsSCH1 1
scalar RSUScenario.node[15].nic.mac1609_4 chPacketsSCH2 0
scalar RSUScenario.node[15].nic.mac1609_4 chPacketsSCH3 0
scalar RSUScenario.node[15].nic.mac1609_4 chPacketsSCH4 0
scalar RSUScenario.node[15].nic.mac1609_4 numberOfNeighbors 1
scalar RSUScenario.node[15].nic.mac1609_4 ReceivedUnicastPackets 0
scalar RSUScenario.node[15].nic.mac1609_4 ReceivedBroadcasts 39419
scalar RSUScenario.node[15].nic.mac1609_4 SentPackets 15521
scalar RSUScenario.node[15].nic.mac1609_4 SentAcknowledgements 0
scalar RSUScenario.node[15].nic.mac1609_4 SNIRLostPackets 273018
scalar RSUScenario.node[15].nic.mac1609_4 RXTXLostPackets 49459
scalar RSUScenario.node[15].nic.mac1609_4 TotalLostPackets 322477
scalar RSUScenario.node[15].nic.mac1609_4 DroppedPacketsInMac 36768
scalar RSUScenario.node[15].nic.mac1609_4 TooLittleTime 245
scalar RSUScenario.node[15].nic.mac1609_4 TimesIntoBackoff 25710
scalar RSUScenario.node[15].nic.mac1609_4 SlotsBackoff 37754
scalar RSUScenario.node[15].nic.mac1609_4 NumInternalContention 0
scalar RSUScenario.node[15].nic.mac1609_4 totalBusyTime 21.85305229836
scalar RSUScenario.node[15].nic.mac1609_4 throughputMetricMac:last 263.44372369248
attr source throughputSignalMac
attr title "throughputMetricMac, last"
scalar RSUScenario.node[15].nic.mac1609_4 throughputMetricMac:count 39419
attr source throughputSignalMac
attr title "throughputMetricMac, count"
scalar RSUScenario.node[15].nic.mac1609_4 throughputMetricMac:sum 6161683.7998083
attr source throughputSignalMac
attr title "throughputMetricMac, sum"
scalar RSUScenario.node[15].nic.mac1609_4 throughputMetricMac:mean 156.31253455969
attr source throughputSignalMac
attr title "throughputMetricMac, mean"
scalar RSUScenario.node[15].veinsmobility startTime 88000
scalar RSUScenario.node[15].veinsmobility totalTime 61000
scalar RSUScenario.node[15].veinsmobility stopTime 149629
scalar RSUScenario.node[15].veinsmobility minSpeed 0.60355476389131
scalar RSUScenario.node[15].veinsmobility maxSpeed 6.8203385037629
scalar RSUScenario.node[15].veinsmobility totalDistance 109.7951971404
scalar RSUScenario.node[15].veinsmobility totalCO2Emission 72.624294821235
scalar RSUScenario.node[16].appl generatedWSMs 1
scalar RSUScenario.node[16].appl receivedWSMs 17
scalar RSUScenario.node[16].appl generatedBSMs 51197
scalar RSUScenario.node[16].appl receivedBSMs 38395
scalar RSUScenario.node[16].appl generatedWSAs 0
scalar RSUScenario.node[16].appl receivedWSAs 0
scalar RSUScenario.node[16].appl beaconInterval 0.1
scalar RSUScenario.node[16].nic.phy80211p busyTime 0.9837770437714
scalar RSUScenario.node[16].nic.phy80211p ncollisions 55837
scalar RSUScenario.node[16].nic.mac1609_4 throughputMetricMac 256.71377544617
scalar RSUScenario.node[16].nic.mac1609_4 throughputMbps 0.22593357188897
scalar RSUScenario.node[16].nic.mac1609_4 throughputControlMbps 0
scalar RSUScenario.node[16].nic.mac1609_4 receivedFramesLowerMsg 38412
scalar RSUScenario.node[16].nic.mac1609_4 receivedBitsLowerPackets 0
scalar RSUScenario.node[16].nic.mac1609_4 receivedBitsLoserWsm 0
scalar RSUScenario.node[16].nic.mac1609_4 packetsNotForMe 0
scalar RSUScenario.node[16].nic.mac1609_4 receivedTotalBits 33806368
scalar RSUScenario.node[16].nic.mac1609_4 collisionsPktNonDecoded 0
scalar RSUScenario.node[16].nic.mac1609_4 chUtilizationCCH 3.583236
scalar RSUScenario.node[16].nic.mac1609_4 chUtilizationSCH1 0.000233
scalar RSUScenario.node[16].nic.mac1609_4 chUtilizationSCH2 0
scalar RSUScenario.node[16].nic.mac1609_4 chUtilizationSCH3 0
scalar RSUScenario.node[16].nic.mac1609_4 chUtilizationSCH4 0
scalar RSUScenario.node[16].nic.mac1609_4 chUtilizationHPPS 0
scalar RSUScenario.node[16].nic.mac1609_4 chUtilizationCRIT_SOL 0
scalar RSUScenario.node[16].nic.mac1609_4 previousSignalQualityCCH 100
scalar RSUScenario.node[16].nic.mac1609_4 previousSignalQualitySCH1 100
scalar RSUScenario.node[16].nic.mac1609_4 previousSignalQualitySCH2 0
scalar RSUScenario.node[16].nic.mac1609_4 previousSignalQualitySCH3 0
scalar RSUScenario.node[16].nic.mac1609_4 previousSignalQualitySCH4 0
scalar RSUScenario.node[16].nic.mac1609_4 chPacketsCCH 29432
scalar RSUScenario.node[16].nic.mac1609_4 chPacketsSCH1 1
scalar RSUScenario.node[16].nic.mac1609_4 chPacketsSCH2 0
scalar RSUScenario.node[16].nic.mac1609_4 chPacketsSCH3 0
scalar RSUScenario.node[16].nic.mac1609_4 chPacketsSCH4 0
scalar RSUScenario.node[16].nic.mac1609_4 numberOfNeighbors 1
scalar RSUScenario.node[16].nic.mac1609_4 ReceivedUnicastPackets 0
scalar RSUScenario.node[16].nic.mac1609_4 ReceivedBroadcasts 38412
scalar RSUScenario.node[16].nic.mac1609_4 SentPackets 14917
scalar RSUScenario.node[16].nic.mac1609_4 SentAcknowledgements 0
scalar RSUScenario.node[16].nic.mac1609_4 SNIRLostPackets 267109
scalar RSUScenario.node[16].nic.mac1609_4 RXTXLostPackets 47679
scalar RSUScenario.node[16].nic.mac1609_4 TotalLostPackets 314788
scalar RSUScenario.node[16].nic.mac1609_4 DroppedPacketsInMac 36281
scalar RSUScenario.node[16].nic.mac1609_4 TooLittleTime 97
scalar RSUScenario.node[16].nic.mac1609_4 TimesIntoBackoff 24780
scalar RSUScenario.node[16].nic.mac1609_4 SlotsBackoff 36514
scalar RSUScenario.node[16].nic.mac1609_4 NumInternalContention 0
scalar RSUScenario.node[16].nic.mac1609_4 totalBusyTime 21.104031714726
scalar RSUScenario.node[16].nic.mac1609_4 throughputMetricMac:last 256.71377544617
attr source throughputSignalMac
attr title "throughputMetricMac, last"
scalar RSUScenario.node[16].nic.mac1609_4 throughputMetricMac:count 38412
attr source throughputSignalMac
attr title "throughputMetricMac, count"
scalar RSUScenario.node[16].nic.mac1609_4 throughputMetricMac:sum 5815396.7723011
attr source throughputSignalMac
attr title "throughputMetricMac, sum"
scalar RSUScenario.node[16].nic.mac1609_4 throughputMetricMac:mean 151.39531324329
attr source throughputSignalMac
attr title "throughputMetricMac, mean"
scalar RSUScenario.node[16].veinsmobility startTime 90000
scalar RSUScenario.node[16].veinsmobility totalTime 59000
scalar RSUScenario.node[16].veinsmobility stopTime 149629
scalar RSUScenario.node[16].veinsmobility minSpeed 0.75900235230892
scalar RSUScenario.node[16].veinsmobility maxSpeed 6.3011961638623
scalar RSUScenario.node[16].veinsmobility totalDistance 104.04184626642
scalar RSUScenario.node[16].veinsmobility totalCO2Emission 69.651948009269
scalar RSUScenario.node[17].appl generatedWSMs 1
scalar RSUScenario.node[17].appl receivedWSMs 18
scalar RSUScenario.node[17].appl generatedBSMs 49138
scalar RSUScenario.node[17].appl receivedBSMs 36995
scalar RSUScenario.node[17].appl generatedWSAs 0
scalar RSUScenario.node[17].appl receivedWSAs 0
scalar RSUScenario.node[17].appl beaconInterval 0.1
scalar RSUScenario.node[17].nic.phy80211p busyTime 0.99086758586307
scalar RSUScenario.node[17].nic.phy80211p ncollisions 54043
scalar RSUScenario.node[17].nic.mac1609_4 throughputMetricMac 247.36402609517
scalar RSUScenario.node[17].nic.mac1609_4 throughputMbps 0.21770728948927
scalar RSUScenario.node[17].nic.mac1609_4 throughputControlMbps 0
scalar RSUScenario.node[17].nic.mac1609_4 receivedFramesLowerMsg 37013
scalar RSUScenario.node[17].nic.mac1609_4 receivedBitsLowerPackets 0
scalar RSUScenario.node[17].nic.mac1609_4 receivedBitsLoserWsm 0
scalar RSUScenario.node[17].nic.mac1609_4 packetsNotForMe 0
scalar RSUScenario.node[17].nic.mac1609_4 receivedTotalBits 32575472
scalar RSUScenario.node[17].nic.mac1609_4 collisionsPktNonDecoded 0
scalar RSUScenario.node[17].nic.mac1609_4 chUtilizationCCH 3.474502
scalar RSUScenario.node[17].nic.mac1609_4 chUtilizationSCH1 0.000233
scalar RSUScenario.node[17].nic.mac1609_4 chUtilizationSCH2 0
scalar RSUScenario.node[17].nic.mac1609_4 chUtilizationSCH3 0
scalar RSUScenario.node[17].nic.mac1609_4 chUtilizationSCH4 0
scalar RSUScenario.node[17].nic.mac1609_4 chUtilizationHPPS 0
scalar RSUScenario.node[17].nic.mac1609_4 chUtilizationCRIT_SOL 0
scalar RSUScenario.node[17].nic.mac1609_4 previousSignalQualityCCH 100
scalar RSUScenario.node[17].nic.mac1609_4 previousSignalQualitySCH1 100
scalar RSUScenario.node[17].nic.mac1609_4 previousSignalQualitySCH2 0
scalar RSUScenario.node[17].nic.mac1609_4 previousSignalQualitySCH3 0
scalar RSUScenario.node[17].nic.mac1609_4 previousSignalQualitySCH4 0
scalar RSUScenario.node[17].nic.mac1609_4 chPacketsCCH 28560
scalar RSUScenario.node[17].nic.mac1609_4 chPacketsSCH1 1
scalar RSUScenario.node[17].nic.mac1609_4 chPacketsSCH2 0
scalar RSUScenario.node[17].nic.mac1609_4 chPacketsSCH3 0
scalar RSUScenario.node[17].nic.mac1609_4 chPacketsSCH4 0
scalar RSUScenario.node[17].nic.mac1609_4 numberOfNeighbors 1
scalar RSUScenario.node[17].nic.mac1609_4 ReceivedUnicastPackets 0
scalar RSUScenario.node[17].nic.mac1609_4 ReceivedBroadcasts 37013
scalar RSUScenario.node[17].nic.mac1609_4 SentPackets 14471
scalar RSUScenario.node[17].nic.mac1609_4 SentAcknowledgements 0
scalar RSUScenario.node[17].nic.mac1609_4 SNIRLostPackets 260391
scalar RSUScenario.node[17].nic.mac1609_4 RXTXLostPackets 47110
scalar RSUScenario.node[17].nic.mac1609_4 TotalLostPackets 307501
scalar RSUScenario.node[17].nic.mac1609_4 DroppedPacketsInMac 34668
scalar RSUScenario.node[17].nic.mac1609_4 TooLittleTime 133
scalar RSUScenario.node[17].nic.mac1609_4 TimesIntoBackoff 24075
scalar RSUScenario.node[17].nic.mac1609_4 SlotsBackoff 35526
scalar RSUScenario.node[17].nic.mac1609_4 NumInternalContention 0
scalar RSUScenario.node[17].nic.mac1609_4 totalBusyTime 20.412408899985
scalar RSUScenario.node[17].nic.mac1609_4 throughputMetricMac:last 247.36402609517
attr source throughputSignalMac
attr title "throughputMetricMac, last"
scalar RSUScenario.node[17].nic.mac1609_4 throughputMetricMac:count 37013
attr source throughputSignalMac
attr title "throughputMetricMac, count"
scalar RSUScenario.node[17].nic.mac1609_4 throughputMetricMac:sum 5368314.2998378
attr source throughputSignalMac
attr title "throughputMetricMac, sum"
scalar RSUScenario.node[17].nic.mac1609_4 throughputMetricMac:mean 145.03861615751
attr source throughputSignalMac
attr title "throughputMetricMac, mean"
scalar RSUScenario.node[17].veinsmobility startTime 92000
scalar RSUScenario.node[17].veinsmobility totalTime 57000
scalar RSUScenario.node[17].veinsmobility stopTime 149629
scalar RSUScenario.node[17].veinsmobility minSpeed 0.89007450927368
scalar RSUScenario.node[17].veinsmobility maxSpeed 5.4657378624806
scalar RSUScenario.node[17].veinsmobility totalDistance 98.152249896295
scalar RSUScenario.node[17].veinsmobility totalCO2Emission 66.362358184332
scalar RSUScenario.node[18].appl generatedWSMs 1
scalar RSUScenario.node[18].appl receivedWSMs 17
scalar RSUScenario.node[18].appl generatedBSMs 46725
scalar RSUScenario.node[18].appl receivedBSMs 35104
scalar RSUScenario.node[18].appl generatedWSAs 0
scalar RSUScenario.node[18].appl receivedWSAs 0
scalar RSUScenario.node[18].appl beaconInterval 0.1
scalar RSUScenario.node[18].nic.phy80211p busyTime 0.99985485030049
scalar RSUScenario.node[18].nic.phy80211p ncollisions 52833
scalar RSUScenario.node[18].nic.mac1609_4 throughputMetricMac 234.71947586709
scalar RSUScenario.node[18].nic.mac1609_4 throughputMbps 0.20657858825936
scalar RSUScenario.node[18].nic.mac1609_4 throughputControlMbps 0
scalar RSUScenario.node[18].nic.mac1609_4 receivedFramesLowerMsg 35121
scalar RSUScenario.node[18].nic.mac1609_4 receivedBitsLowerPackets 0
scalar RSUScenario.node[18].nic.mac1609_4 receivedBitsLoserWsm 0
scalar RSUScenario.node[18].nic.mac1609_4 packetsNotForMe 0
scalar RSUScenario.node[18].nic.mac1609_4 receivedTotalBits 30910288
scalar RSUScenario.node[18].nic.mac1609_4 collisionsPktNonDecoded 0
scalar RSUScenario.node[18].nic.mac1609_4 chUtilizationCCH 3.388575
scalar RSUScenario.node[18].nic.mac1609_4 chUtilizationSCH1 0.000233
scalar RSUScenario.node[18].nic.mac1609_4 chUtilizationSCH2 0
scalar RSUScenario.node[18].nic.mac1609_4 chUtilizationSCH3 0
scalar RSUScenario.node[18].nic.mac1609_4 chUtilizationSCH4 0
scalar RSUScenario.node[18].nic.mac1609_4 chUtilizationHPPS 0
scalar RSUScenario.node[18].nic.mac1609_4 chUtilizationCRIT_SOL 0
scalar RSUScenario.node[18].nic.mac1609_4 previousSignalQualityCCH 100
scalar RSUScenario.node[18].nic.mac1609_4 previousSignalQualitySCH1 100
scalar RSUScenario.node[18].nic.mac1609_4 previousSignalQualitySCH2 0
scalar RSUScenario.node[18].nic.mac1609_4 previousSignalQualitySCH3 0
scalar RSUScenario.node[18].nic.mac1609_4 previousSignalQualitySCH4 0
scalar RSUScenario.node[18].nic.mac1609_4 chPacketsCCH 27592
scalar RSUScenario.node[18].nic.mac1609_4 chPacketsSCH1 1
scalar RSUScenario.node[18].nic.mac1609_4 chPacketsSCH2 0
scalar RSUScenario.node[18].nic.mac1609_4 chPacketsSCH3 0
scalar RSUScenario.node[18].nic.mac1609_4 chPacketsSCH4 0
scalar RSUScenario.node[18].nic.mac1609_4 numberOfNeighbors 1
scalar RSUScenario.node[18].nic.mac1609_4 ReceivedUnicastPackets 0
scalar RSUScenario.node[18].nic.mac1609_4 ReceivedBroadcasts 35121
scalar RSUScenario.node[18].nic.mac1609_4 SentPackets 13984
scalar RSUScenario.node[18].nic.mac1609_4 SentAcknowledgements 0
scalar RSUScenario.node[18].nic.mac1609_4 SNIRLostPackets 254567
scalar RSUScenario.node[18].nic.mac1609_4 RXTXLostPackets 45773
scalar RSUScenario.node[18].nic.mac1609_4 TotalLostPackets 300340
scalar RSUScenario.node[18].nic.mac1609_4 DroppedPacketsInMac 32742
scalar RSUScenario.node[18].nic.mac1609_4 TooLittleTime 536
scalar RSUScenario.node[18].nic.mac1609_4 TimesIntoBackoff 23104
scalar RSUScenario.node[18].nic.mac1609_4 SlotsBackoff 34093
scalar RSUScenario.node[18].nic.mac1609_4 NumInternalContention 0
scalar RSUScenario.node[18].nic.mac1609_4 totalBusyTime 19.763687521191
scalar RSUScenario.node[18].nic.mac1609_4 throughputMetricMac:last 234.71947586709
attr source throughputSignalMac
attr title "throughputMetricMac, last"
scalar RSUScenario.node[18].nic.mac1609_4 throughputMetricMac:count 35121
attr source throughputSignalMac
attr title "throughputMetricMac, count"
scalar RSUScenario.node[18].nic.mac1609_4 throughputMetricMac:sum 4813061.6613204
attr source throughputSignalMac
attr title "throughputMetricMac, sum"
scalar RSUScenario.node[18].nic.mac1609_4 throughputMetricMac:mean 137.04227275193
attr source throughputSignalMac
attr title "throughputMetricMac, mean"
scalar RSUScenario.node[18].veinsmobility startTime 94000
scalar RSUScenario.node[18].veinsmobility totalTime 55000
scalar RSUScenario.node[18].veinsmobility stopTime 149629
scalar RSUScenario.node[18].veinsmobility minSpeed 0.96385793630412
scalar RSUScenario.node[18].veinsmobility maxSpeed 5.009624306905
scalar RSUScenario.node[18].veinsmobility totalDistance 92.216769845907
scalar RSUScenario.node[18].veinsmobility totalCO2Emission 63.75955622104
scalar RSUScenario.node[19].appl generatedWSMs 1
scalar RSUScenario.node[19].appl receivedWSMs 18
scalar RSUScenario.node[19].appl generatedBSMs 42451
scalar RSUScenario.node[19].appl receivedBSMs 31892
scalar RSUScenario.node[19].appl generatedWSAs 0
scalar RSUScenario.node[19].appl receivedWSAs 0
scalar RSUScenario.node[19].appl beaconInterval 0.1
scalar RSUScenario.node[19].nic.phy80211p busyTime 1.0161433820512
scalar RSUScenario.node[19].nic.phy80211p ncollisions 53480
scalar RSUScenario.node[19].nic.mac1609_4 throughputMetricMac 213.25982957896
scalar RSUScenario.node[19].nic.mac1609_4 throughputMbps 0.18769559655503
scalar RSUScenario.node[19].nic.mac1609_4 throughputControlMbps 0
scalar RSUScenario.node[19].nic.mac1609_4 receivedFramesLowerMsg 31910
scalar RSUScenario.node[19].nic.mac1609_4 receivedBitsLowerPackets 0
scalar RSUScenario.node[19].nic.mac1609_4 receivedBitsLoserWsm 0
scalar RSUScenario.node[19].nic.mac1609_4 packetsNotForMe 0
scalar RSUScenario.node[19].nic.mac1609_4 receivedTotalBits 28084832
scalar RSUScenario.node[19].nic.mac1609_4 collisionsPktNonDecoded 0
scalar RSUScenario.node[19].nic.mac1609_4 chUtilizationCCH 3.093527
scalar RSUScenario.node[19].nic.mac1609_4 chUtilizationSCH1 0.000233
scalar RSUScenario.node[19].nic.mac1609_4 chUtilizationSCH2 0
scalar RSUScenario.node[19].nic.mac1609_4 chUtilizationSCH3 0
scalar RSUScenario.node[19].nic.mac1609_4 chUtilizationSCH4 0
scalar RSUScenario.node[19].nic.mac1609_4 chUtilizationHPPS 0
scalar RSUScenario.node[19].nic.mac1609_4 chUtilizationCRIT_SOL 0
scalar RSUScenario.node[19].nic.mac1609_4 previousSignalQualityCCH 100
scalar RSUScenario.node[19].nic.mac1609_4 previousSignalQualitySCH1 100
scalar RSUScenario.node[19].nic.mac1609_4 previousSignalQualitySCH2 0
scalar RSUScenario.node[19].nic.mac1609_4 previousSignalQualitySCH3 0
scalar RSUScenario.node[19].nic.mac1609_4 previousSignalQualitySCH4 0
scalar RSUScenario.node[19].nic.mac1609_4 chPacketsCCH 25422
scalar RSUScenario.node[19].nic.mac1609_4 chPacketsSCH1 1
scalar RSUScenario.node[19].nic.mac1609_4 chPacketsSCH2 0
scalar RSUScenario.node[19].nic.mac1609_4 chPacketsSCH3 0
scalar RSUScenario.node[19].nic.mac1609_4 chPacketsSCH4 0
scalar RSUScenario.node[19].nic.mac1609_4 numberOfNeighbors 1
scalar RSUScenario.node[19].nic.mac1609_4 ReceivedUnicastPackets 0
scalar RSUScenario.node[19].nic.mac1609_4 ReceivedBroadcasts 31910
scalar RSUScenario.node[19].nic.mac1609_4 SentPackets 12888
scalar RSUScenario.node[19].nic.mac1609_4 SentAcknowledgements 0
scalar RSUScenario.node[19].nic.mac1609_4 SNIRLostPackets 251912
scalar RSUScenario.node[19].nic.mac1609_4 RXTXLostPackets 42669
scalar RSUScenario.node[19].nic.mac1609_4 TotalLostPackets 294581
scalar RSUScenario.node[19].nic.mac1609_4 DroppedPacketsInMac 29564
scalar RSUScenario.node[19].nic.mac1609_4 TooLittleTime 442
scalar RSUScenario.node[19].nic.mac1609_4 TimesIntoBackoff 21497
scalar RSUScenario.node[19].nic.mac1609_4 SlotsBackoff 31392
scalar RSUScenario.node[19].nic.mac1609_4 NumInternalContention 0
scalar RSUScenario.node[19].nic.mac1609_4 totalBusyTime 19.03450712632
scalar RSUScenario.node[19].nic.mac1609_4 throughputMetricMac:last 213.25982957896
attr source throughputSignalMac
attr title "throughputMetricMac, last"
scalar RSUScenario.node[19].nic.mac1609_4 throughputMetricMac:count 31910
attr source throughputSignalMac
attr title "throughputMetricMac, count"
scalar RSUScenario.node[19].nic.mac1609_4 throughputMetricMac:sum 3965028.9156817
attr source throughputSignalMac
attr title "throughputMetricMac, sum"
scalar RSUScenario.node[19].nic.mac1609_4 throughputMetricMac:mean 124.25662537392
attr source throughputSignalMac
attr title "throughputMetricMac, mean"
scalar RSUScenario.node[19].veinsmobility startTime 96000
scalar RSUScenario.node[19].veinsmobility totalTime 53000
scalar RSUScenario.node[19].veinsmobility stopTime 149629
scalar RSUScenario.node[19].veinsmobility minSpeed 1.0015222615547
scalar RSUScenario.node[19].veinsmobility maxSpeed 4.6532842827868
scalar RSUScenario.node[19].veinsmobility totalDistance 86.376383979542
scalar RSUScenario.node[19].veinsmobility totalCO2Emission 61.330110643076
scalar RSUScenario.node[20].appl generatedWSMs 3
scalar RSUScenario.node[20].appl receivedWSMs 15
scalar RSUScenario.node[20].appl generatedBSMs 46609
scalar RSUScenario.node[20].appl receivedBSMs 34864
scalar RSUScenario.node[20].appl generatedWSAs 0
scalar RSUScenario.node[20].appl receivedWSAs 0
scalar RSUScenario.node[20].appl beaconInterval 0.1
scalar RSUScenario.node[20].nic.phy80211p busyTime 1.006611487278
scalar RSUScenario.node[20].nic.phy80211p ncollisions 46290
scalar RSUScenario.node[20].nic.mac1609_4 throughputMetricMac 233.10214965581
scalar RSUScenario.node[20].nic.mac1609_4 throughputMbps 0.20515234713503
scalar RSUScenario.node[20].nic.mac1609_4 throughputControlMbps 0
scalar RSUScenario.node[20].nic.mac1609_4 receivedFramesLowerMsg 34879
scalar RSUScenario.node[20].nic.mac1609_4 receivedBitsLowerPackets 0
scalar RSUScenario.node[20].nic.mac1609_4 receivedBitsLoserWsm 0
scalar RSUScenario.node[20].nic.mac1609_4 packetsNotForMe 0
scalar RSUScenario.node[20].nic.mac1609_4 receivedTotalBits 30696880
scalar RSUScenario.node[20].nic.mac1609_4 collisionsPktNonDecoded 0
scalar RSUScenario.node[20].nic.mac1609_4 chUtilizationCCH 3.240966
scalar RSUScenario.node[20].nic.mac1609_4 chUtilizationSCH1 0.000465
scalar RSUScenario.node[20].nic.mac1609_4 chUtilizationSCH2 0.000465
scalar RSUScenario.node[20].nic.mac1609_4 chUtilizationSCH3 0.000465
scalar RSUScenario.node[20].nic.mac1609_4 chUtilizationSCH4 0
scalar RSUScenario.node[20].nic.mac1609_4 chUtilizationHPPS 0
scalar RSUScenario.node[20].nic.mac1609_4 chUtilizationCRIT_SOL 0
scalar RSUScenario.node[20].nic.mac1609_4 previousSignalQualityCCH 100
scalar RSUScenario.node[20].nic.mac1609_4 previousSignalQualitySCH1 100
scalar RSUScenario.node[20].nic.mac1609_4 previousSignalQualitySCH2 100
scalar RSUScenario.node[20].nic.mac1609_4 previousSignalQualitySCH3 100
scalar RSUScenario.node[20].nic.mac1609_4 previousSignalQualitySCH4 0
scalar RSUScenario.node[20].nic.mac1609_4 chPacketsCCH 26547
scalar RSUScenario.node[20].nic.mac1609_4 chPacketsSCH1 2
scalar RSUScenario.node[20].nic.mac1609_4 chPacketsSCH2 2
scalar RSUScenario.node[20].nic.mac1609_4 chPacketsSCH3 2
scalar RSUScenario.node[20].nic.mac1609_4 chPacketsSCH4 0
scalar RSUScenario.node[20].nic.mac1609_4 numberOfNeighbors 1
scalar RSUScenario.node[20].nic.mac1609_4 ReceivedUnicastPackets 0
scalar RSUScenario.node[20].nic.mac1609_4 ReceivedBroadcasts 34879
scalar RSUScenario.node[20].nic.mac1609_4 SentPackets 13449
scalar RSUScenario.node[20].nic.mac1609_4 SentAcknowledgements 0
scalar RSUScenario.node[20].nic.mac1609_4 SNIRLostPackets 235795
scalar RSUScenario.node[20].nic.mac1609_4 RXTXLostPackets 44688
scalar RSUScenario.node[20].nic.mac1609_4 TotalLostPackets 280483
scalar RSUScenario.node[20].nic.mac1609_4 DroppedPacketsInMac 33163
scalar RSUScenario.node[20].nic.mac1609_4 TooLittleTime 496
scalar RSUScenario.node[20].nic.mac1609_4 TimesIntoBackoff 22293
scalar RSUScenario.node[20].nic.mac1609_4 SlotsBackoff 32938
scalar RSUScenario.node[20].nic.mac1609_4 NumInternalContention 0
scalar RSUScenario.node[20].nic.mac1609_4 totalBusyTime 18.330632601611
scalar RSUScenario.node[20].nic.mac1609_4 throughputMetricMac:last 233.10214965581
attr source throughputSignalMac
attr title "throughputMetricMac, last"
scalar RSUScenario.node[20].nic.mac1609_4 throughputMetricMac:count 34879
attr source throughputSignalMac
attr title "throughputMetricMac, count"
scalar RSUScenario.node[20].nic.mac1609_4 throughputMetricMac:sum 4698399.7681026
attr source throughputSignalMac
attr title "throughputMetricMac, sum"
scalar RSUScenario.node[20].nic.mac1609_4 throughputMetricMac:mean 134.70569018901
attr source throughputSignalMac
attr title "throughputMetricMac, mean"
scalar RSUScenario.node[20].veinsmobility startTime 98000
scalar RSUScenario.node[20].veinsmobility totalTime 51000
scalar RSUScenario.node[20].veinsmobility stopTime 149629
scalar RSUScenario.node[20].veinsmobility minSpeed 0
scalar RSUScenario.node[20].veinsmobility maxSpeed 9.8554973309629
scalar RSUScenario.node[20].veinsmobility totalDistance 80.260005883134
scalar RSUScenario.node[20].veinsmobility totalCO2Emission 67.284878665944
scalar RSUScenario.node[21].appl generatedWSMs 3
scalar RSUScenario.node[21].appl receivedWSMs 15
scalar RSUScenario.node[21].appl generatedBSMs 47120
scalar RSUScenario.node[21].appl receivedBSMs 35239
scalar RSUScenario.node[21].appl generatedWSAs 0
scalar RSUScenario.node[21].appl receivedWSAs 0
scalar RSUScenario.node[21].appl beaconInterval 0.1
scalar RSUScenario.node[21].nic.phy80211p busyTime 1.007153593047
scalar RSUScenario.node[21].nic.phy80211p ncollisions 40712
scalar RSUScenario.node[21].nic.mac1609_4 throughputMetricMac 235.60833691947
scalar RSUScenario.node[21].nic.mac1609_4 throughputMbps 0.20735779192705
scalar RSUScenario.node[21].nic.mac1609_4 throughputControlMbps 0
scalar RSUScenario.node[21].nic.mac1609_4 receivedFramesLowerMsg 35254
scalar RSUScenario.node[21].nic.mac1609_4 receivedBitsLowerPackets 0
scalar RSUScenario.node[21].nic.mac1609_4 receivedBitsLoserWsm 0
scalar RSUScenario.node[21].nic.mac1609_4 packetsNotForMe 0
scalar RSUScenario.node[21].nic.mac1609_4 receivedTotalBits 31026880
scalar RSUScenario.node[21].nic.mac1609_4 collisionsPktNonDecoded 0
scalar RSUScenario.node[21].nic.mac1609_4 chUtilizationCCH 3.173862
scalar RSUScenario.node[21].nic.mac1609_4 chUtilizationSCH1 0.000465
scalar RSUScenario.node[21].nic.mac1609_4 chUtilizationSCH2 0.000465
scalar RSUScenario.node[21].nic.mac1609_4 chUtilizationSCH3 0.000465
scalar RSUScenario.node[21].nic.mac1609_4 chUtilizationSCH4 0
scalar RSUScenario.node[21].nic.mac1609_4 chUtilizationHPPS 0
scalar RSUScenario.node[21].nic.mac1609_4 chUtilizationCRIT_SOL 0
scalar RSUScenario.node[21].nic.mac1609_4 previousSignalQualityCCH 100
scalar RSUScenario.node[21].nic.mac1609_4 previousSignalQualitySCH1 100
scalar RSUScenario.node[21].nic.mac1609_4 previousSignalQualitySCH2 100
scalar RSUScenario.node[21].nic.mac1609_4 previousSignalQualitySCH3 100
scalar RSUScenario.node[21].nic.mac1609_4 previousSignalQualitySCH4 0
scalar RSUScenario.node[21].nic.mac1609_4 chPacketsCCH 26018
scalar RSUScenario.node[21].nic.mac1609_4 chPacketsSCH1 2
scalar RSUScenario.node[21].nic.mac1609_4 chPacketsSCH2 2
scalar RSUScenario.node[21].nic.mac1609_4 chPacketsSCH3 2
scalar RSUScenario.node[21].nic.mac1609_4 chPacketsSCH4 0
scalar RSUScenario.node[21].nic.mac1609_4 numberOfNeighbors 1
scalar RSUScenario.node[21].nic.mac1609_4 ReceivedUnicastPackets 0
scalar RSUScenario.node[21].nic.mac1609_4 ReceivedBroadcasts 35254
scalar RSUScenario.node[21].nic.mac1609_4 SentPackets 13161
scalar RSUScenario.node[21].nic.mac1609_4 SentAcknowledgements 0
scalar RSUScenario.node[21].nic.mac1609_4 SNIRLostPackets 219828
scalar RSUScenario.node[21].nic.mac1609_4 RXTXLostPackets 44022
scalar RSUScenario.node[21].nic.mac1609_4 TotalLostPackets 263850
scalar RSUScenario.node[21].nic.mac1609_4 DroppedPacketsInMac 33962
scalar RSUScenario.node[21].nic.mac1609_4 TooLittleTime 493
scalar RSUScenario.node[21].nic.mac1609_4 TimesIntoBackoff 21658
scalar RSUScenario.node[21].nic.mac1609_4 SlotsBackoff 32127
scalar RSUScenario.node[21].nic.mac1609_4 NumInternalContention 0
scalar RSUScenario.node[21].nic.mac1609_4 totalBusyTime 17.252813075743
scalar RSUScenario.node[21].nic.mac1609_4 throughputMetricMac:last 235.60833691947
attr source throughputSignalMac
attr title "throughputMetricMac, last"
scalar RSUScenario.node[21].nic.mac1609_4 throughputMetricMac:count 35254
attr source throughputSignalMac
attr title "throughputMetricMac, count"
scalar RSUScenario.node[21].nic.mac1609_4 throughputMetricMac:sum 4748766.5812757
attr source throughputSignalMac
attr title "throughputMetricMac, sum"
scalar RSUScenario.node[21].nic.mac1609_4 throughputMetricMac:mean 134.70149717126
attr source throughputSignalMac
attr title "throughputMetricMac, mean"
scalar RSUScenario.node[21].veinsmobility startTime 101000
scalar RSUScenario.node[21].veinsmobility totalTime 48000
scalar RSUScenario.node[21].veinsmobility stopTime 149629
scalar RSUScenario.node[21].veinsmobility minSpeed 0
scalar RSUScenario.node[21].veinsmobility maxSpeed 8.5447925259565
scalar RSUScenario.node[21].veinsmobility totalDistance 72.417296200485
scalar RSUScenario.node[21].veinsmobility totalCO2Emission 58.287567215715
scalar RSUScenario.node[22].appl generatedWSMs 1
scalar RSUScenario.node[22].appl receivedWSMs 17
scalar RSUScenario.node[22].appl generatedBSMs 45417
scalar RSUScenario.node[22].appl receivedBSMs 33976
scalar RSUScenario.node[22].appl generatedWSAs 0
scalar RSUScenario.node[22].appl receivedWSAs 0
scalar RSUScenario.node[22].appl beaconInterval 0.1
scalar RSUScenario.node[22].nic.phy80211p busyTime 1.0086383791112
scalar RSUScenario.node[22].nic.phy80211p ncollisions 38673
scalar RSUScenario.node[22].nic.mac1609_4 throughputMetricMac 227.1808644743
scalar RSUScenario.node[22].nic.mac1609_4 throughputMbps 0.19994461023371
scalar RSUScenario.node[22].nic.mac1609_4 throughputControlMbps 0
scalar RSUScenario.node[22].nic.mac1609_4 receivedFramesLowerMsg 33993
scalar RSUScenario.node[22].nic.mac1609_4 receivedBitsLowerPackets 0
scalar RSUScenario.node[22].nic.mac1609_4 receivedBitsLoserWsm 0
scalar RSUScenario.node[22].nic.mac1609_4 packetsNotForMe 0
scalar RSUScenario.node[22].nic.mac1609_4 receivedTotalBits 29917648
scalar RSUScenario.node[22].nic.mac1609_4 collisionsPktNonDecoded 0
scalar RSUScenario.node[22].nic.mac1609_4 chUtilizationCCH 3.145856
scalar RSUScenario.node[22].nic.mac1609_4 chUtilizationSCH1 0.000233
scalar RSUScenario.node[22].nic.mac1609_4 chUtilizationSCH2 0
scalar RSUScenario.node[22].nic.mac1609_4 chUtilizationSCH3 0
scalar RSUScenario.node[22].nic.mac1609_4 chUtilizationSCH4 0
scalar RSUScenario.node[22].nic.mac1609_4 chUtilizationHPPS 0
scalar RSUScenario.node[22].nic.mac1609_4 chUtilizationCRIT_SOL 0
scalar RSUScenario.node[22].nic.mac1609_4 previousSignalQualityCCH 100
scalar RSUScenario.node[22].nic.mac1609_4 previousSignalQualitySCH1 100
scalar RSUScenario.node[22].nic.mac1609_4 previousSignalQualitySCH2 0
scalar RSUScenario.node[22].nic.mac1609_4 previousSignalQualitySCH3 0
scalar RSUScenario.node[22].nic.mac1609_4 previousSignalQualitySCH4 0
scalar RSUScenario.node[22].nic.mac1609_4 chPacketsCCH 25313
scalar RSUScenario.node[22].nic.mac1609_4 chPacketsSCH1 1
scalar RSUScenario.node[22].nic.mac1609_4 chPacketsSCH2 0
scalar RSUScenario.node[22].nic.mac1609_4 chPacketsSCH3 0
scalar RSUScenario.node[22].nic.mac1609_4 chPacketsSCH4 0
scalar RSUScenario.node[22].nic.mac1609_4 numberOfNeighbors 1
scalar RSUScenario.node[22].nic.mac1609_4 ReceivedUnicastPackets 0
scalar RSUScenario.node[22].nic.mac1609_4 ReceivedBroadcasts 33993
scalar RSUScenario.node[22].nic.mac1609_4 SentPackets 12801
scalar RSUScenario.node[22].nic.mac1609_4 SentAcknowledgements 0
scalar RSUScenario.node[22].nic.mac1609_4 SNIRLostPackets 210958
scalar RSUScenario.node[22].nic.mac1609_4 RXTXLostPackets 43168
scalar RSUScenario.node[22].nic.mac1609_4 TotalLostPackets 254126
scalar RSUScenario.node[22].nic.mac1609_4 DroppedPacketsInMac 32617
scalar RSUScenario.node[22].nic.mac1609_4 TooLittleTime 372
scalar RSUScenario.node[22].nic.mac1609_4 TimesIntoBackoff 20831
scalar RSUScenario.node[22].nic.mac1609_4 SlotsBackoff 30721
scalar RSUScenario.node[22].nic.mac1609_4 NumInternalContention 0
scalar RSUScenario.node[22].nic.mac1609_4 totalBusyTime 16.535848271887
scalar RSUScenario.node[22].nic.mac1609_4 throughputMetricMac:last 227.1808644743
attr source throughputSignalMac
attr title "throughputMetricMac, last"
scalar RSUScenario.node[22].nic.mac1609_4 throughputMetricMac:count 33993
attr source throughputSignalMac
attr title "throughputMetricMac, count"
scalar RSUScenario.node[22].nic.mac1609_4 throughputMetricMac:sum 4380105.4899547
attr source throughputSignalMac
attr title "throughputMetricMac, sum"
scalar RSUScenario.node[22].nic.mac1609_4 throughputMetricMac:mean 128.85316064939
attr source throughputSignalMac
attr title "throughputMetricMac, mean"
scalar RSUScenario.node[22].veinsmobility startTime 103000
scalar RSUScenario.node[22].veinsmobility totalTime 46000
scalar RSUScenario.node[22].veinsmobility stopTime 149629
scalar RSUScenario.node[22].veinsmobility minSpeed 0
scalar RSUScenario.node[22].veinsmobility maxSpeed 7.6265488707437
scalar RSUScenario.node[22].veinsmobility totalDistance 64.989618818274
scalar RSUScenario.node[22].veinsmobility totalCO2Emission 55.004013720773
scalar RSUScenario.node[23].appl generatedWSMs 1
scalar RSUScenario.node[23].appl receivedWSMs 17
scalar RSUScenario.node[23].appl generatedBSMs 43439
scalar RSUScenario.node[23].appl receivedBSMs 32523
scalar RSUScenario.node[23].appl generatedWSAs 0
scalar RSUScenario.node[23].appl receivedWSAs 0
scalar RSUScenario.node[23].appl beaconInterval 0.1
scalar RSUScenario.node[23].nic.phy80211p busyTime 1.0120619874576
scalar RSUScenario.node[23].nic.phy80211p ncollisions 35298
scalar RSUScenario.node[23].nic.mac1609_4 throughputMetricMac 217.47022413844
scalar RSUScenario.node[23].nic.mac1609_4 throughputMbps 0.19139924673816
scalar RSUScenario.node[23].nic.mac1609_4 throughputControlMbps 0
scalar RSUScenario.node[23].nic.mac1609_4 receivedFramesLowerMsg 32540
scalar RSUScenario.node[23].nic.mac1609_4 receivedBitsLowerPackets 0
scalar RSUScenario.node[23].nic.mac1609_4 receivedBitsLoserWsm 0
scalar RSUScenario.node[23].nic.mac1609_4 packetsNotForMe 0
scalar RSUScenario.node[23].nic.mac1609_4 receivedTotalBits 28639008
scalar RSUScenario.node[23].nic.mac1609_4 collisionsPktNonDecoded 0
scalar RSUScenario.node[23].nic.mac1609_4 chUtilizationCCH 2.913382
scalar RSUScenario.node[23].nic.mac1609_4 chUtilizationSCH1 0.000465
scalar RSUScenario.node[23].nic.mac1609_4 chUtilizationSCH2 0
scalar RSUScenario.node[23].nic.mac1609_4 chUtilizationSCH3 0
scalar RSUScenario.node[23].nic.mac1609_4 chUtilizationSCH4 0
scalar RSUScenario.node[23].nic.mac1609_4 chUtilizationHPPS 0
scalar RSUScenario.node[23].nic.mac1609_4 chUtilizationCRIT_SOL 0
scalar RSUScenario.node[23].nic.mac1609_4 previousSignalQualityCCH 100
scalar RSUScenario.node[23].nic.mac1609_4 previousSignalQualitySCH1 100
scalar RSUScenario.node[23].nic.mac1609_4 previousSignalQualitySCH2 0
scalar RSUScenario.node[23].nic.mac1609_4 previousSignalQualitySCH3 0
scalar RSUScenario.node[23].nic.mac1609_4 previousSignalQualitySCH4 0
scalar RSUScenario.node[23].nic.mac1609_4 chPacketsCCH 23870
scalar RSUScenario.node[23].nic.mac1609_4 chPacketsSCH1 2
scalar RSUScenario.node[23].nic.mac1609_4 chPacketsSCH2 0
scalar RSUScenario.node[23].nic.mac1609_4 chPacketsSCH3 0
scalar RSUScenario.node[23].nic.mac1609_4 chPacketsSCH4 0
scalar RSUScenario.node[23].nic.mac1609_4 numberOfNeighbors 1
scalar RSUScenario.node[23].nic.mac1609_4 ReceivedUnicastPackets 0
scalar RSUScenario.node[23].nic.mac1609_4 ReceivedBroadcasts 32540
scalar RSUScenario.node[23].nic.mac1609_4 SentPackets 12071
scalar RSUScenario.node[23].nic.mac1609_4 SentAcknowledgements 0
scalar RSUScenario.node[23].nic.mac1609_4 SNIRLostPackets 197430
scalar RSUScenario.node[23].nic.mac1609_4 RXTXLostPackets 41073
scalar RSUScenario.node[23].nic.mac1609_4 TotalLostPackets 238503
scalar RSUScenario.node[23].nic.mac1609_4 DroppedPacketsInMac 31369
scalar RSUScenario.node[23].nic.mac1609_4 TooLittleTime 97
scalar RSUScenario.node[23].nic.mac1609_4 TimesIntoBackoff 19812
scalar RSUScenario.node[23].nic.mac1609_4 SlotsBackoff 29144
scalar RSUScenario.node[23].nic.mac1609_4 NumInternalContention 0
scalar RSUScenario.node[23].nic.mac1609_4 totalBusyTime 15.447287184799
scalar RSUScenario.node[23].nic.mac1609_4 throughputMetricMac:last 217.47022413844
attr source throughputSignalMac
attr title "throughputMetricMac, last"
scalar RSUScenario.node[23].nic.mac1609_4 throughputMetricMac:count 32540
attr source throughputSignalMac
attr title "throughputMetricMac, count"
scalar RSUScenario.node[23].nic.mac1609_4 throughputMetricMac:sum 3972105.319691
attr source throughputSignalMac
attr title "throughputMetricMac, sum"
scalar RSUScenario.node[23].nic.mac1609_4 throughputMetricMac:mean 122.06838720624
attr source throughputSignalMac
attr title "throughputMetricMac, mean"
scalar RSUScenario.node[23].veinsmobility startTime 106000
scalar RSUScenario.node[23].veinsmobility totalTime 43000
scalar RSUScenario.node[23].veinsmobility stopTime 149629
scalar RSUScenario.node[23].veinsmobility minSpeed 0
scalar RSUScenario.node[23].veinsmobility maxSpeed 6.7403223326175
scalar RSUScenario.node[23].veinsmobility totalDistance 55.661439076972
scalar RSUScenario.node[23].veinsmobility totalCO2Emission 49.576253923843
scalar RSUScenario.node[6].appl generatedWSMs 1
scalar RSUScenario.node[6].appl receivedWSMs 34
scalar RSUScenario.node[6].appl generatedBSMs 145210
scalar RSUScenario.node[6].appl receivedBSMs 110476
scalar RSUScenario.node[6].appl generatedWSAs 0
scalar RSUScenario.node[6].appl receivedWSAs 0
scalar RSUScenario.node[6].appl beaconInterval 0.1
scalar RSUScenario.node[6].nic.phy80211p busyTime 0.7417772770557
scalar RSUScenario.node[6].nic.phy80211p ncollisions 82780
scalar RSUScenario.node[6].nic.mac1609_4 throughputMetricMac 738.55668425976
scalar RSUScenario.node[6].nic.mac1609_4 throughputMbps 0.64998078114068
scalar RSUScenario.node[6].nic.mac1609_4 throughputControlMbps 0
scalar RSUScenario.node[6].nic.mac1609_4 receivedFramesLowerMsg 110510
scalar RSUScenario.node[6].nic.mac1609_4 receivedBitsLowerPackets 0
scalar RSUScenario.node[6].nic.mac1609_4 receivedBitsLoserWsm 0
scalar RSUScenario.node[6].nic.mac1609_4 packetsNotForMe 0
scalar RSUScenario.node[6].nic.mac1609_4 receivedTotalBits 97256416
scalar RSUScenario.node[6].nic.mac1609_4 collisionsPktNonDecoded 0
scalar RSUScenario.node[6].nic.mac1609_4 chUtilizationCCH 9.506569
scalar RSUScenario.node[6].nic.mac1609_4 chUtilizationSCH1 0
scalar RSUScenario.node[6].nic.mac1609_4 chUtilizationSCH2 0.000233
scalar RSUScenario.node[6].nic.mac1609_4 chUtilizationSCH3 0
scalar RSUScenario.node[6].nic.mac1609_4 chUtilizationSCH4 0
scalar RSUScenario.node[6].nic.mac1609_4 chUtilizationHPPS 0
scalar RSUScenario.node[6].nic.mac1609_4 chUtilizationCRIT_SOL 0
scalar RSUScenario.node[6].nic.mac1609_4 previousSignalQualityCCH 100
scalar RSUScenario.node[6].nic.mac1609_4 previousSignalQualitySCH1 0
scalar RSUScenario.node[6].nic.mac1609_4 previousSignalQualitySCH2 100
scalar RSUScenario.node[6].nic.mac1609_4 previousSignalQualitySCH3 0
scalar RSUScenario.node[6].nic.mac1609_4 previousSignalQualitySCH4 0
scalar RSUScenario.node[6].nic.mac1609_4 chPacketsCCH 77330
scalar RSUScenario.node[6].nic.mac1609_4 chPacketsSCH1 0
scalar RSUScenario.node[6].nic.mac1609_4 chPacketsSCH2 1
scalar RSUScenario.node[6].nic.mac1609_4 chPacketsSCH3 0
scalar RSUScenario.node[6].nic.mac1609_4 chPacketsSCH4 0
scalar RSUScenario.node[6].nic.mac1609_4 numberOfNeighbors 1
scalar RSUScenario.node[6].nic.mac1609_4 ReceivedUnicastPackets 0
scalar RSUScenario.node[6].nic.mac1609_4 ReceivedBroadcasts 110510
scalar RSUScenario.node[6].nic.mac1609_4 SentPackets 39050
scalar RSUScenario.node[6].nic.mac1609_4 SentAcknowledgements 0
scalar RSUScenario.node[6].nic.mac1609_4 SNIRLostPackets 382531
scalar RSUScenario.node[6].nic.mac1609_4 RXTXLostPackets 88545
scalar RSUScenario.node[6].nic.mac1609_4 TotalLostPackets 471076
scalar RSUScenario.node[6].nic.mac1609_4 DroppedPacketsInMac 106161
scalar RSUScenario.node[6].nic.mac1609_4 TooLittleTime 1171
scalar RSUScenario.node[6].nic.mac1609_4 TimesIntoBackoff 63814
scalar RSUScenario.node[6].nic.mac1609_4 SlotsBackoff 93962
scalar RSUScenario.node[6].nic.mac1609_4 NumInternalContention 0
scalar RSUScenario.node[6].nic.mac1609_4 totalBusyTime 45.056507192063
scalar RSUScenario.node[6].nic.mac1609_4 throughputMetricMac:last 738.55668425976
attr source throughputSignalMac
attr title "throughputMetricMac, last"
scalar RSUScenario.node[6].nic.mac1609_4 throughputMetricMac:count 110510
attr source throughputSignalMac
attr title "throughputMetricMac, count"
scalar RSUScenario.node[6].nic.mac1609_4 throughputMetricMac:sum 68828403.109979
attr source throughputSignalMac
attr title "throughputMetricMac, sum"
scalar RSUScenario.node[6].nic.mac1609_4 throughputMetricMac:mean 622.8251118449
attr source throughputSignalMac
attr title "throughputMetricMac, mean"
scalar RSUScenario.node[6].veinsmobility startTime 22000
scalar RSUScenario.node[6].veinsmobility totalTime 127000
scalar RSUScenario.node[6].veinsmobility stopTime 149629
scalar RSUScenario.node[6].veinsmobility minSpeed 0.98094131815177
scalar RSUScenario.node[6].veinsmobility maxSpeed 1.3917858111526
scalar RSUScenario.node[6].veinsmobility totalDistance 170.78501226208
scalar RSUScenario.node[6].veinsmobility totalCO2Emission 148.2252797454
scalar RSUScenario.node[24].appl generatedWSMs 1
scalar RSUScenario.node[24].appl receivedWSMs 17
scalar RSUScenario.node[24].appl generatedBSMs 40230
scalar RSUScenario.node[24].appl receivedBSMs 30219
scalar RSUScenario.node[24].appl generatedWSAs 0
scalar RSUScenario.node[24].appl receivedWSAs 0
scalar RSUScenario.node[24].appl beaconInterval 0.1
scalar RSUScenario.node[24].nic.phy80211p busyTime 1.0213783644531
scalar RSUScenario.node[24].nic.phy80211p ncollisions 33090
scalar RSUScenario.node[24].nic.mac1609_4 throughputMetricMac 202.07220946963
scalar RSUScenario.node[24].nic.mac1609_4 throughputMbps 0.17784899382962
scalar RSUScenario.node[24].nic.mac1609_4 throughputControlMbps 0
scalar RSUScenario.node[24].nic.mac1609_4 receivedFramesLowerMsg 30236
scalar RSUScenario.node[24].nic.mac1609_4 receivedBitsLowerPackets 0
scalar RSUScenario.node[24].nic.mac1609_4 receivedBitsLoserWsm 0
scalar RSUScenario.node[24].nic.mac1609_4 packetsNotForMe 0
scalar RSUScenario.node[24].nic.mac1609_4 receivedTotalBits 26611488
scalar RSUScenario.node[24].nic.mac1609_4 collisionsPktNonDecoded 0
scalar RSUScenario.node[24].nic.mac1609_4 chUtilizationCCH 2.688597
scalar RSUScenario.node[24].nic.mac1609_4 chUtilizationSCH1 0.000465
scalar RSUScenario.node[24].nic.mac1609_4 chUtilizationSCH2 0
scalar RSUScenario.node[24].nic.mac1609_4 chUtilizationSCH3 0
scalar RSUScenario.node[24].nic.mac1609_4 chUtilizationSCH4 0
scalar RSUScenario.node[24].nic.mac1609_4 chUtilizationHPPS 0
scalar RSUScenario.node[24].nic.mac1609_4 chUtilizationCRIT_SOL 0
scalar RSUScenario.node[24].nic.mac1609_4 previousSignalQualityCCH 100
scalar RSUScenario.node[24].nic.mac1609_4 previousSignalQualitySCH1 100
scalar RSUScenario.node[24].nic.mac1609_4 previousSignalQualitySCH2 0
scalar RSUScenario.node[24].nic.mac1609_4 previousSignalQualitySCH3 0
scalar RSUScenario.node[24].nic.mac1609_4 previousSignalQualitySCH4 0
scalar RSUScenario.node[24].nic.mac1609_4 chPacketsCCH 22068
scalar RSUScenario.node[24].nic.mac1609_4 chPacketsSCH1 2
scalar RSUScenario.node[24].nic.mac1609_4 chPacketsSCH2 0
scalar RSUScenario.node[24].nic.mac1609_4 chPacketsSCH3 0
scalar RSUScenario.node[24].nic.mac1609_4 chPacketsSCH4 0
scalar RSUScenario.node[24].nic.mac1609_4 numberOfNeighbors 1
scalar RSUScenario.node[24].nic.mac1609_4 ReceivedUnicastPackets 0
scalar RSUScenario.node[24].nic.mac1609_4 ReceivedBroadcasts 30236
scalar RSUScenario.node[24].nic.mac1609_4 SentPackets 11158
scalar RSUScenario.node[24].nic.mac1609_4 SentAcknowledgements 0
scalar RSUScenario.node[24].nic.mac1609_4 SNIRLostPackets 185888
scalar RSUScenario.node[24].nic.mac1609_4 RXTXLostPackets 37665
scalar RSUScenario.node[24].nic.mac1609_4 TotalLostPackets 223553
scalar RSUScenario.node[24].nic.mac1609_4 DroppedPacketsInMac 29073
scalar RSUScenario.node[24].nic.mac1609_4 TooLittleTime 368
scalar RSUScenario.node[24].nic.mac1609_4 TimesIntoBackoff 18360
scalar RSUScenario.node[24].nic.mac1609_4 SlotsBackoff 27109
scalar RSUScenario.node[24].nic.mac1609_4 NumInternalContention 0
scalar RSUScenario.node[24].nic.mac1609_4 totalBusyTime 14.399443348976
scalar RSUScenario.node[24].nic.mac1609_4 throughputMetricMac:last 202.07220946963
attr source throughputSignalMac
attr title "throughputMetricMac, last"
scalar RSUScenario.node[24].nic.mac1609_4 throughputMetricMac:count 30236
attr source throughputSignalMac
attr title "throughputMetricMac, count"
scalar RSUScenario.node[24].nic.mac1609_4 throughputMetricMac:sum 3394196.7414128
attr source throughputSignalMac
attr title "throughputMetricMac, sum"
scalar RSUScenario.node[24].nic.mac1609_4 throughputMetricMac:mean 112.25680451822
attr source throughputSignalMac
attr title "throughputMetricMac, mean"
scalar RSUScenario.node[24].veinsmobility startTime 109000
scalar RSUScenario.node[24].veinsmobility totalTime 40000
scalar RSUScenario.node[24].veinsmobility stopTime 149629
scalar RSUScenario.node[24].veinsmobility minSpeed 0
scalar RSUScenario.node[24].veinsmobility maxSpeed 5.9430106001603
scalar RSUScenario.node[24].veinsmobility totalDistance 46.678879995054
scalar RSUScenario.node[24].veinsmobility totalCO2Emission 45.333125093708
scalar RSUScenario.node[25].appl generatedWSMs 0
scalar RSUScenario.node[25].appl receivedWSMs 0
scalar RSUScenario.node[25].appl generatedBSMs 7884
scalar RSUScenario.node[25].appl receivedBSMs 6580
scalar RSUScenario.node[25].appl generatedWSAs 0
scalar RSUScenario.node[25].appl receivedWSAs 0
scalar RSUScenario.node[25].appl beaconInterval 0.1
scalar RSUScenario.node[25].nic.phy80211p busyTime 1.090681314744
scalar RSUScenario.node[25].nic.phy80211p ncollisions 8792
scalar RSUScenario.node[25].nic.mac1609_4 throughputMetricMac 43.975232772305
scalar RSUScenario.node[25].nic.mac1609_4 throughputMbps 0.038698204839634
scalar RSUScenario.node[25].nic.mac1609_4 throughputControlMbps 0
scalar RSUScenario.node[25].nic.mac1609_4 receivedFramesLowerMsg 6580
scalar RSUScenario.node[25].nic.mac1609_4 receivedBitsLowerPackets 0
scalar RSUScenario.node[25].nic.mac1609_4 receivedBitsLoserWsm 0
scalar RSUScenario.node[25].nic.mac1609_4 packetsNotForMe 0
scalar RSUScenario.node[25].nic.mac1609_4 receivedTotalBits 5790400
scalar RSUScenario.node[25].nic.mac1609_4 collisionsPktNonDecoded 0
scalar RSUScenario.node[25].nic.mac1609_4 chUtilizationCCH 0.556411
scalar RSUScenario.node[25].nic.mac1609_4 chUtilizationSCH1 0
scalar RSUScenario.node[25].nic.mac1609_4 chUtilizationSCH2 0
scalar RSUScenario.node[25].nic.mac1609_4 chUtilizationSCH3 0
scalar RSUScenario.node[25].nic.mac1609_4 chUtilizationSCH4 0
scalar RSUScenario.node[25].nic.mac1609_4 chUtilizationHPPS 0
scalar RSUScenario.node[25].nic.mac1609_4 chUtilizationCRIT_SOL 0
scalar RSUScenario.node[25].nic.mac1609_4 previousSignalQualityCCH 100
scalar RSUScenario.node[25].nic.mac1609_4 previousSignalQualitySCH1 0
scalar RSUScenario.node[25].nic.mac1609_4 previousSignalQualitySCH2 0
scalar RSUScenario.node[25].nic.mac1609_4 previousSignalQualitySCH3 0
scalar RSUScenario.node[25].nic.mac1609_4 previousSignalQualitySCH4 0
scalar RSUScenario.node[25].nic.mac1609_4 chPacketsCCH 4535
scalar RSUScenario.node[25].nic.mac1609_4 chPacketsSCH1 0
scalar RSUScenario.node[25].nic.mac1609_4 chPacketsSCH2 0
scalar RSUScenario.node[25].nic.mac1609_4 chPacketsSCH3 0
scalar RSUScenario.node[25].nic.mac1609_4 chPacketsSCH4 0
scalar RSUScenario.node[25].nic.mac1609_4 numberOfNeighbors 1
scalar RSUScenario.node[25].nic.mac1609_4 ReceivedUnicastPackets 0
scalar RSUScenario.node[25].nic.mac1609_4 ReceivedBroadcasts 6580
scalar RSUScenario.node[25].nic.mac1609_4 SentPackets 2299
scalar RSUScenario.node[25].nic.mac1609_4 SentAcknowledgements 0
scalar RSUScenario.node[25].nic.mac1609_4 SNIRLostPackets 48123
scalar RSUScenario.node[25].nic.mac1609_4 RXTXLostPackets 8187
scalar RSUScenario.node[25].nic.mac1609_4 TotalLostPackets 56310
scalar RSUScenario.node[25].nic.mac1609_4 DroppedPacketsInMac 5585
scalar RSUScenario.node[25].nic.mac1609_4 TooLittleTime 15
scalar RSUScenario.node[25].nic.mac1609_4 TimesIntoBackoff 3780
scalar RSUScenario.node[25].nic.mac1609_4 SlotsBackoff 5638
scalar RSUScenario.node[25].nic.mac1609_4 NumInternalContention 0
scalar RSUScenario.node[25].nic.mac1609_4 totalBusyTime 3.414398978286
scalar RSUScenario.node[25].nic.mac1609_4 throughputMetricMac:last 43.975232772305
attr source throughputSignalMac
attr title "throughputMetricMac, last"
scalar RSUScenario.node[25].nic.mac1609_4 throughputMetricMac:count 6580
attr source throughputSignalMac
attr title "throughputMetricMac, count"
scalar RSUScenario.node[25].nic.mac1609_4 throughputMetricMac:sum 148275.23959059
attr source throughputSignalMac
attr title "throughputMetricMac, sum"
scalar RSUScenario.node[25].nic.mac1609_4 throughputMetricMac:mean 22.534230940819
attr source throughputSignalMac
attr title "throughputMetricMac, mean"
scalar RSUScenario.node[25].veinsmobility startTime 140000
scalar RSUScenario.node[25].veinsmobility totalTime 9000
scalar RSUScenario.node[25].veinsmobility stopTime 149629
scalar RSUScenario.node[25].veinsmobility minSpeed 1.2612088884108
scalar RSUScenario.node[25].veinsmobility maxSpeed 5.4218828293063
scalar RSUScenario.node[25].veinsmobility totalDistance 37.111176619207
scalar RSUScenario.node[25].veinsmobility totalCO2Emission 13.755504145177
scalar RSUScenario.node[26].appl generatedWSMs 0
scalar RSUScenario.node[26].appl receivedWSMs 0
scalar RSUScenario.node[26].appl generatedBSMs 4701
scalar RSUScenario.node[26].appl receivedBSMs 4287
scalar RSUScenario.node[26].appl generatedWSAs 0
scalar RSUScenario.node[26].appl receivedWSAs 0
scalar RSUScenario.node[26].appl beaconInterval 0.1
scalar RSUScenario.node[26].nic.phy80211p busyTime 1.1225926698867
scalar RSUScenario.node[26].nic.phy80211p ncollisions 6450
scalar RSUScenario.node[26].nic.mac1609_4 throughputMetricMac 28.650732957871
scalar RSUScenario.node[26].nic.mac1609_4 throughputMbps 0.025212645002926
scalar RSUScenario.node[26].nic.mac1609_4 throughputControlMbps 0
scalar RSUScenario.node[26].nic.mac1609_4 receivedFramesLowerMsg 4287
scalar RSUScenario.node[26].nic.mac1609_4 receivedBitsLowerPackets 0
scalar RSUScenario.node[26].nic.mac1609_4 receivedBitsLoserWsm 0
scalar RSUScenario.node[26].nic.mac1609_4 packetsNotForMe 0
scalar RSUScenario.node[26].nic.mac1609_4 receivedTotalBits 3772560
scalar RSUScenario.node[26].nic.mac1609_4 collisionsPktNonDecoded 0
scalar RSUScenario.node[26].nic.mac1609_4 chUtilizationCCH 0.352803
scalar RSUScenario.node[26].nic.mac1609_4 chUtilizationSCH1 0
scalar RSUScenario.node[26].nic.mac1609_4 chUtilizationSCH2 0
scalar RSUScenario.node[26].nic.mac1609_4 chUtilizationSCH3 0
scalar RSUScenario.node[26].nic.mac1609_4 chUtilizationSCH4 0
scalar RSUScenario.node[26].nic.mac1609_4 chUtilizationHPPS 0
scalar RSUScenario.node[26].nic.mac1609_4 chUtilizationCRIT_SOL 0
scalar RSUScenario.node[26].nic.mac1609_4 previousSignalQualityCCH 100
scalar RSUScenario.node[26].nic.mac1609_4 previousSignalQualitySCH1 0
scalar RSUScenario.node[26].nic.mac1609_4 previousSignalQualitySCH2 0
scalar RSUScenario.node[26].nic.mac1609_4 previousSignalQualitySCH3 0
scalar RSUScenario.node[26].nic.mac1609_4 previousSignalQualitySCH4 0
scalar RSUScenario.node[26].nic.mac1609_4 chPacketsCCH 2847
scalar RSUScenario.node[26].nic.mac1609_4 chPacketsSCH1 0
scalar RSUScenario.node[26].nic.mac1609_4 chPacketsSCH2 0
scalar RSUScenario.node[26].nic.mac1609_4 chPacketsSCH3 0
scalar RSUScenario.node[26].nic.mac1609_4 chPacketsSCH4 0
scalar RSUScenario.node[26].nic.mac1609_4 numberOfNeighbors 1
scalar RSUScenario.node[26].nic.mac1609_4 ReceivedUnicastPackets 0
scalar RSUScenario.node[26].nic.mac1609_4 ReceivedBroadcasts 4287
scalar RSUScenario.node[26].nic.mac1609_4 SentPackets 1443
scalar RSUScenario.node[26].nic.mac1609_4 SentAcknowledgements 0
scalar RSUScenario.node[26].nic.mac1609_4 SNIRLostPackets 34476
scalar RSUScenario.node[26].nic.mac1609_4 RXTXLostPackets 5228
scalar RSUScenario.node[26].nic.mac1609_4 TotalLostPackets 39704
scalar RSUScenario.node[26].nic.mac1609_4 DroppedPacketsInMac 3258
scalar RSUScenario.node[26].nic.mac1609_4 TooLittleTime 11
scalar RSUScenario.node[26].nic.mac1609_4 TimesIntoBackoff 2385
scalar RSUScenario.node[26].nic.mac1609_4 SlotsBackoff 3516
scalar RSUScenario.node[26].nic.mac1609_4 NumInternalContention 0
scalar RSUScenario.node[26].nic.mac1609_4 totalBusyTime 2.352982229612
scalar RSUScenario.node[26].nic.mac1609_4 throughputMetricMac:last 28.650732957871
attr source throughputSignalMac
attr title "throughputMetricMac, last"
scalar RSUScenario.node[26].nic.mac1609_4 throughputMetricMac:count 4287
attr source throughputSignalMac
attr title "throughputMetricMac, count"
scalar RSUScenario.node[26].nic.mac1609_4 throughputMetricMac:sum 62422.31508549
attr source throughputSignalMac
attr title "throughputMetricMac, sum"
scalar RSUScenario.node[26].nic.mac1609_4 throughputMetricMac:mean 14.5608386017
attr source throughputSignalMac
attr title "throughputMetricMac, mean"
scalar RSUScenario.node[26].veinsmobility startTime 143000
scalar RSUScenario.node[26].veinsmobility totalTime 6000
scalar RSUScenario.node[26].veinsmobility stopTime 149629
scalar RSUScenario.node[26].veinsmobility minSpeed 3.0149447288827
scalar RSUScenario.node[26].veinsmobility maxSpeed 5.3908081853904
scalar RSUScenario.node[26].veinsmobility totalDistance 26.86569072806
scalar RSUScenario.node[26].veinsmobility totalCO2Emission 8.9092788833048
scalar RSUScenario.node[27].appl generatedWSMs 0
scalar RSUScenario.node[27].appl receivedWSMs 0
scalar RSUScenario.node[27].appl generatedBSMs 2822
scalar RSUScenario.node[27].appl receivedBSMs 2877
scalar RSUScenario.node[27].appl generatedWSAs 0
scalar RSUScenario.node[27].appl receivedWSAs 0
scalar RSUScenario.node[27].appl beaconInterval 0.1
scalar RSUScenario.node[27].nic.phy80211p busyTime 1.1606910062085
scalar RSUScenario.node[27].nic.phy80211p ncollisions 4757
scalar RSUScenario.node[27].nic.mac1609_4 throughputMetricMac 19.227468790311
scalar RSUScenario.node[27].nic.mac1609_4 throughputMbps 0.016920172535474
scalar RSUScenario.node[27].nic.mac1609_4 throughputControlMbps 0
scalar RSUScenario.node[27].nic.mac1609_4 receivedFramesLowerMsg 2877
scalar RSUScenario.node[27].nic.mac1609_4 receivedBitsLowerPackets 0
scalar RSUScenario.node[27].nic.mac1609_4 receivedBitsLoserWsm 0
[...]
scalar RSUScenario.node[12].nic.mac1609_4 TooLittleTime 968
scalar RSUScenario.node[12].nic.mac1609_4 TimesIntoBackoff 44518
scalar RSUScenario.node[12].nic.mac1609_4 SlotsBackoff 65940
scalar RSUScenario.node[12].nic.mac1609_4 NumInternalContention 0
scalar RSUScenario.node[12].nic.mac1609_4 totalBusyTime 35.312650759715
scalar RSUScenario.node[12].nic.mac1609_4 throughputMetricMac:last 478.84216657049
attr source throughputSignalMac
attr title "throughputMetricMac, last"
scalar RSUScenario.node[12].nic.mac1609_4 throughputMetricMac:count 71649
attr source throughputSignalMac
attr title "throughputMetricMac, count"
scalar RSUScenario.node[12].nic.mac1609_4 throughputMetricMac:sum 24455992.013604
attr source throughputSignalMac
attr title "throughputMetricMac, sum"
scalar RSUScenario.node[12].nic.mac1609_4 throughputMetricMac:mean 341.33054213742
attr source throughputSignalMac
attr title "throughputMetricMac, mean"
scalar RSUScenario.node[12].veinsmobility startTime 50000
scalar RSUScenario.node[12].veinsmobility totalTime 99000
scalar RSUScenario.node[12].veinsmobility stopTime 149629
scalar RSUScenario.node[12].veinsmobility minSpeed 0
scalar RSUScenario.node[12].veinsmobility maxSpeed 7.4105448994872
scalar RSUScenario.node[12].veinsmobility totalDistance 132.39250574262
scalar RSUScenario.node[12].veinsmobility totalCO2Emission 116.74099179386
scalar RSUScenario.node[13].appl generatedWSMs 1
scalar RSUScenario.node[13].appl receivedWSMs 17
scalar RSUScenario.node[13].appl generatedBSMs 57372
scalar RSUScenario.node[13].appl receivedBSMs 42961
scalar RSUScenario.node[13].appl generatedWSAs 0
scalar RSUScenario.node[13].appl receivedWSAs 0
scalar RSUScenario.node[13].appl beaconInterval 0.1
scalar RSUScenario.node[13].nic.phy80211p busyTime 0.95476262249474
scalar RSUScenario.node[13].nic.phy80211p ncollisions 62453
scalar RSUScenario.node[13].nic.mac1609_4 throughputMetricMac 287.22911179523
scalar RSUScenario.node[13].nic.mac1609_4 throughputMbps 0.25278706787621
scalar RSUScenario.node[13].nic.mac1609_4 throughputControlMbps 0
scalar RSUScenario.node[13].nic.mac1609_4 receivedFramesLowerMsg 42978
scalar RSUScenario.node[13].nic.mac1609_4 receivedBitsLowerPackets 0
scalar RSUScenario.node[13].nic.mac1609_4 receivedBitsLoserWsm 0
scalar RSUScenario.node[13].nic.mac1609_4 packetsNotForMe 0
scalar RSUScenario.node[13].nic.mac1609_4 receivedTotalBits 37824448
scalar RSUScenario.node[13].nic.mac1609_4 collisionsPktNonDecoded 0
scalar RSUScenario.node[13].nic.mac1609_4 chUtilizationCCH 4.026125
scalar RSUScenario.node[13].nic.mac1609_4 chUtilizationSCH1 0.000465
scalar RSUScenario.node[13].nic.mac1609_4 chUtilizationSCH2 0
scalar RSUScenario.node[13].nic.mac1609_4 chUtilizationSCH3 0
scalar RSUScenario.node[13].nic.mac1609_4 chUtilizationSCH4 0
scalar RSUScenario.node[13].nic.mac1609_4 chUtilizationHPPS 0
scalar RSUScenario.node[13].nic.mac1609_4 chUtilizationCRIT_SOL 0
scalar RSUScenario.node[13].nic.mac1609_4 previousSignalQualityCCH 100
scalar RSUScenario.node[13].nic.mac1609_4 previousSignalQualitySCH1 100
scalar RSUScenario.node[13].nic.mac1609_4 previousSignalQualitySCH2 0
scalar RSUScenario.node[13].nic.mac1609_4 previousSignalQualitySCH3 0
scalar RSUScenario.node[13].nic.mac1609_4 previousSignalQualitySCH4 0
scalar RSUScenario.node[13].nic.mac1609_4 chPacketsCCH 32731
scalar RSUScenario.node[13].nic.mac1609_4 chPacketsSCH1 2
scalar RSUScenario.node[13].nic.mac1609_4 chPacketsSCH2 0
scalar RSUScenario.node[13].nic.mac1609_4 chPacketsSCH3 0
scalar RSUScenario.node[13].nic.mac1609_4 chPacketsSCH4 0
scalar RSUScenario.node[13].nic.mac1609_4 numberOfNeighbors 1
scalar RSUScenario.node[13].nic.mac1609_4 ReceivedUnicastPackets 0
scalar RSUScenario.node[13].nic.mac1609_4 ReceivedBroadcasts 42978
scalar RSUScenario.node[13].nic.mac1609_4 SentPackets 16590
scalar RSUScenario.node[13].nic.mac1609_4 SentAcknowledgements 0
scalar RSUScenario.node[13].nic.mac1609_4 SNIRLostPackets 288277
scalar RSUScenario.node[13].nic.mac1609_4 RXTXLostPackets 51177
scalar RSUScenario.node[13].nic.mac1609_4 TotalLostPackets 339454
scalar RSUScenario.node[13].nic.mac1609_4 DroppedPacketsInMac 40782
scalar RSUScenario.node[13].nic.mac1609_4 TooLittleTime 437
scalar RSUScenario.node[13].nic.mac1609_4 TimesIntoBackoff 27455
scalar RSUScenario.node[13].nic.mac1609_4 SlotsBackoff 40545
scalar RSUScenario.node[13].nic.mac1609_4 NumInternalContention 0
scalar RSUScenario.node[13].nic.mac1609_4 totalBusyTime 23.646130678499
scalar RSUScenario.node[13].nic.mac1609_4 throughputMetricMac:last 287.22911179523
attr source throughputSignalMac
attr title "throughputMetricMac, last"
scalar RSUScenario.node[13].nic.mac1609_4 throughputMetricMac:count 42978
attr source throughputSignalMac
attr title "throughputMetricMac, count"
scalar RSUScenario.node[13].nic.mac1609_4 throughputMetricMac:sum 7471903.4795043
attr source throughputSignalMac
attr title "throughputMetricMac, sum"
scalar RSUScenario.node[13].nic.mac1609_4 throughputMetricMac:mean 173.85414583053
attr source throughputSignalMac
attr title "throughputMetricMac, mean"
scalar RSUScenario.node[13].veinsmobility startTime 83000
scalar RSUScenario.node[13].veinsmobility totalTime 66000
scalar RSUScenario.node[13].veinsmobility stopTime 149629
scalar RSUScenario.node[13].veinsmobility minSpeed 0.00096499577547671
scalar RSUScenario.node[13].veinsmobility maxSpeed 7.1800269404833
scalar RSUScenario.node[13].veinsmobility totalDistance 121.41329931153
scalar RSUScenario.node[13].veinsmobility totalCO2Emission 81.416070885823
scalar RSUScenario.node[2].appl generatedWSMs 1
scalar RSUScenario.node[2].appl receivedWSMs 34
scalar RSUScenario.node[2].appl generatedBSMs 176377
scalar RSUScenario.node[2].appl receivedBSMs 132490
scalar RSUScenario.node[2].appl generatedWSAs 0
scalar RSUScenario.node[2].appl receivedWSAs 0
scalar RSUScenario.node[2].appl beaconInterval 0.1
scalar RSUScenario.node[2].nic.phy80211p busyTime 0.67305019778641
scalar RSUScenario.node[2].nic.phy80211p ncollisions 72194
scalar RSUScenario.node[2].nic.mac1609_4 throughputMetricMac 885.67990266587
scalar RSUScenario.node[2].nic.mac1609_4 throughputMbps 0.77944921333735
scalar RSUScenario.node[2].nic.mac1609_4 throughputControlMbps 0
scalar RSUScenario.node[2].nic.mac1609_4 receivedFramesLowerMsg 132524
scalar RSUScenario.node[2].nic.mac1609_4 receivedBitsLowerPackets 0
scalar RSUScenario.node[2].nic.mac1609_4 receivedBitsLoserWsm 0
scalar RSUScenario.node[2].nic.mac1609_4 packetsNotForMe 0
scalar RSUScenario.node[2].nic.mac1609_4 receivedTotalBits 116628736
scalar RSUScenario.node[2].nic.mac1609_4 collisionsPktNonDecoded 0
scalar RSUScenario.node[2].nic.mac1609_4 chUtilizationCCH 11.334449
scalar RSUScenario.node[2].nic.mac1609_4 chUtilizationSCH1 0
scalar RSUScenario.node[2].nic.mac1609_4 chUtilizationSCH2 0.000233
scalar RSUScenario.node[2].nic.mac1609_4 chUtilizationSCH3 0
scalar RSUScenario.node[2].nic.mac1609_4 chUtilizationSCH4 0
scalar RSUScenario.node[2].nic.mac1609_4 chUtilizationHPPS 0
scalar RSUScenario.node[2].nic.mac1609_4 chUtilizationCRIT_SOL 0
scalar RSUScenario.node[2].nic.mac1609_4 previousSignalQualityCCH 100
scalar RSUScenario.node[2].nic.mac1609_4 previousSignalQualitySCH1 0
scalar RSUScenario.node[2].nic.mac1609_4 previousSignalQualitySCH2 100
scalar RSUScenario.node[2].nic.mac1609_4 previousSignalQualitySCH3 0
scalar RSUScenario.node[2].nic.mac1609_4 previousSignalQualitySCH4 0
scalar RSUScenario.node[2].nic.mac1609_4 chPacketsCCH 90674
scalar RSUScenario.node[2].nic.mac1609_4 chPacketsSCH1 0
scalar RSUScenario.node[2].nic.mac1609_4 chPacketsSCH2 1
scalar RSUScenario.node[2].nic.mac1609_4 chPacketsSCH3 0
scalar RSUScenario.node[2].nic.mac1609_4 chPacketsSCH4 0
scalar RSUScenario.node[2].nic.mac1609_4 numberOfNeighbors 1
scalar RSUScenario.node[2].nic.mac1609_4 ReceivedUnicastPackets 0
scalar RSUScenario.node[2].nic.mac1609_4 ReceivedBroadcasts 132524
scalar RSUScenario.node[2].nic.mac1609_4 SentPackets 45810
scalar RSUScenario.node[2].nic.mac1609_4 SentAcknowledgements 0
scalar RSUScenario.node[2].nic.mac1609_4 SNIRLostPackets 370911
scalar RSUScenario.node[2].nic.mac1609_4 RXTXLostPackets 93692
scalar RSUScenario.node[2].nic.mac1609_4 TotalLostPackets 464603
scalar RSUScenario.node[2].nic.mac1609_4 DroppedPacketsInMac 130568
scalar RSUScenario.node[2].nic.mac1609_4 TooLittleTime 1557
scalar RSUScenario.node[2].nic.mac1609_4 TimesIntoBackoff 73817
scalar RSUScenario.node[2].nic.mac1609_4 SlotsBackoff 108958
scalar RSUScenario.node[2].nic.mac1609_4 NumInternalContention 0
scalar RSUScenario.node[2].nic.mac1609_4 totalBusyTime 48.791087558439
scalar RSUScenario.node[2].nic.mac1609_4 throughputMetricMac:last 885.67990266587
attr source throughputSignalMac
attr title "throughputMetricMac, last"
scalar RSUScenario.node[2].nic.mac1609_4 throughputMetricMac:count 132524
attr source throughputSignalMac
attr title "throughputMetricMac, count"
scalar RSUScenario.node[2].nic.mac1609_4 throughputMetricMac:sum 108886899.51849
attr source throughputSignalMac
attr title "throughputMetricMac, sum"
scalar RSUScenario.node[2].nic.mac1609_4 throughputMetricMac:mean 821.63909569955
attr source throughputSignalMac
attr title "throughputMetricMac, mean"
scalar RSUScenario.node[2].veinsmobility startTime 6000
scalar RSUScenario.node[2].veinsmobility totalTime 143000
scalar RSUScenario.node[2].veinsmobility stopTime 149629
scalar RSUScenario.node[2].veinsmobility minSpeed 0.8838096124817
scalar RSUScenario.node[2].veinsmobility maxSpeed 1.3932919526019
scalar RSUScenario.node[2].veinsmobility totalDistance 192.2461383689
scalar RSUScenario.node[2].veinsmobility totalCO2Emission 167.08081106123
scalar RSUScenario.node[3].appl generatedWSMs 1
scalar RSUScenario.node[3].appl receivedWSMs 34
scalar RSUScenario.node[3].appl generatedBSMs 174907
scalar RSUScenario.node[3].appl receivedBSMs 131727
scalar RSUScenario.node[3].appl generatedWSAs 0
scalar RSUScenario.node[3].appl receivedWSAs 0
scalar RSUScenario.node[3].appl beaconInterval 0.1
scalar RSUScenario.node[3].nic.phy80211p busyTime 0.69393624299828
scalar RSUScenario.node[3].nic.phy80211p ncollisions 72111
scalar RSUScenario.node[3].nic.mac1609_4 throughputMetricMac 880.58360386198
scalar RSUScenario.node[3].nic.mac1609_4 throughputMbps 0.77496447056087
scalar RSUScenario.node[3].nic.mac1609_4 throughputControlMbps 0
scalar RSUScenario.node[3].nic.mac1609_4 receivedFramesLowerMsg 131761
scalar RSUScenario.node[3].nic.mac1609_4 receivedBitsLowerPackets 0
scalar RSUScenario.node[3].nic.mac1609_4 receivedBitsLoserWsm 0
scalar RSUScenario.node[3].nic.mac1609_4 packetsNotForMe 0
scalar RSUScenario.node[3].nic.mac1609_4 receivedTotalBits 115957296
scalar RSUScenario.node[3].nic.mac1609_4 collisionsPktNonDecoded 0
scalar RSUScenario.node[3].nic.mac1609_4 chUtilizationCCH 11.169178
scalar RSUScenario.node[3].nic.mac1609_4 chUtilizationSCH1 0
scalar RSUScenario.node[3].nic.mac1609_4 chUtilizationSCH2 0
scalar RSUScenario.node[3].nic.mac1609_4 chUtilizationSCH3 0.000233
scalar RSUScenario.node[3].nic.mac1609_4 chUtilizationSCH4 0
scalar RSUScenario.node[3].nic.mac1609_4 chUtilizationHPPS 0
scalar RSUScenario.node[3].nic.mac1609_4 chUtilizationCRIT_SOL 0
scalar RSUScenario.node[3].nic.mac1609_4 previousSignalQualityCCH 100
scalar RSUScenario.node[3].nic.mac1609_4 previousSignalQualitySCH1 0
scalar RSUScenario.node[3].nic.mac1609_4 previousSignalQualitySCH2 0
scalar RSUScenario.node[3].nic.mac1609_4 previousSignalQualitySCH3 100
scalar RSUScenario.node[3].nic.mac1609_4 previousSignalQualitySCH4 0
scalar RSUScenario.node[3].nic.mac1609_4 chPacketsCCH 89694
scalar RSUScenario.node[3].nic.mac1609_4 chPacketsSCH1 0
scalar RSUScenario.node[3].nic.mac1609_4 chPacketsSCH2 0
scalar RSUScenario.node[3].nic.mac1609_4 chPacketsSCH3 1
scalar RSUScenario.node[3].nic.mac1609_4 chPacketsSCH4 0
scalar RSUScenario.node[3].nic.mac1609_4 numberOfNeighbors 1
scalar RSUScenario.node[3].nic.mac1609_4 ReceivedUnicastPackets 0
scalar RSUScenario.node[3].nic.mac1609_4 ReceivedBroadcasts 131761
scalar RSUScenario.node[3].nic.mac1609_4 SentPackets 45275
scalar RSUScenario.node[3].nic.mac1609_4 SentAcknowledgements 0
scalar RSUScenario.node[3].nic.mac1609_4 SNIRLostPackets 369202
scalar RSUScenario.node[3].nic.mac1609_4 RXTXLostPackets 95682
scalar RSUScenario.node[3].nic.mac1609_4 TotalLostPackets 464884
scalar RSUScenario.node[3].nic.mac1609_4 DroppedPacketsInMac 129633
scalar RSUScenario.node[3].nic.mac1609_4 TooLittleTime 1033
scalar RSUScenario.node[3].nic.mac1609_4 TimesIntoBackoff 72927
scalar RSUScenario.node[3].nic.mac1609_4 SlotsBackoff 107394
scalar RSUScenario.node[3].nic.mac1609_4 NumInternalContention 0
scalar RSUScenario.node[3].nic.mac1609_4 totalBusyTime 48.282447153998
scalar RSUScenario.node[3].nic.mac1609_4 throughputMetricMac:last 880.58360386198
attr source throughputSignalMac
attr title "throughputMetricMac, last"
scalar RSUScenario.node[3].nic.mac1609_4 throughputMetricMac:count 131761
attr source throughputSignalMac
attr title "throughputMetricMac, count"
scalar RSUScenario.node[3].nic.mac1609_4 throughputMetricMac:sum 105838617.76463
attr source throughputSignalMac
attr title "throughputMetricMac, sum"
scalar RSUScenario.node[3].nic.mac1609_4 throughputMetricMac:mean 803.26210156744
attr source throughputSignalMac
attr title "throughputMetricMac, mean"
scalar RSUScenario.node[3].veinsmobility startTime 11000
scalar RSUScenario.node[3].veinsmobility totalTime 138000
scalar RSUScenario.node[3].veinsmobility stopTime 149629
scalar RSUScenario.node[3].veinsmobility minSpeed 0.98564389594301
scalar RSUScenario.node[3].veinsmobility maxSpeed 1.3992750530507
scalar RSUScenario.node[3].veinsmobility totalDistance 185.78023157297
scalar RSUScenario.node[3].veinsmobility totalCO2Emission 161.15983420666
scalar RSUScenario.manager roiArea 0
scalar RSUScenario.manager activeVehicleCount 29
scalar RSUScenario.manager totalVehicleCount 150
scalar RSUScenario.rsu[0].appl generatedWSMs 11
scalar RSUScenario.rsu[0].appl receivedWSMs 11
scalar RSUScenario.rsu[0].appl generatedBSMs 0
scalar RSUScenario.rsu[0].appl receivedBSMs 87105
scalar RSUScenario.rsu[0].appl generatedWSAs 0
scalar RSUScenario.rsu[0].appl receivedWSAs 0
scalar RSUScenario.rsu[0].appl beaconInterval 0.1
scalar RSUScenario.rsu[0].nic.phy80211p busyTime 0.70236337344982
scalar RSUScenario.rsu[0].nic.phy80211p ncollisions 157495
scalar RSUScenario.rsu[0].nic.mac1609_4 ReceivedUnicastPackets 0
scalar RSUScenario.rsu[0].nic.mac1609_4 ReceivedBroadcasts 87116
scalar RSUScenario.rsu[0].nic.mac1609_4 SentPackets 9
scalar RSUScenario.rsu[0].nic.mac1609_4 SentAcknowledgements 0
scalar RSUScenario.rsu[0].nic.mac1609_4 SNIRLostPackets 460248
scalar RSUScenario.rsu[0].nic.mac1609_4 RXTXLostPackets 0
scalar RSUScenario.rsu[0].nic.mac1609_4 TotalLostPackets 460248
scalar RSUScenario.rsu[0].nic.mac1609_4 DroppedPacketsInMac 2
scalar RSUScenario.rsu[0].nic.mac1609_4 TooLittleTime 0
scalar RSUScenario.rsu[0].nic.mac1609_4 TimesIntoBackoff 14
scalar RSUScenario.rsu[0].nic.mac1609_4 SlotsBackoff 11
scalar RSUScenario.rsu[0].nic.mac1609_4 NumInternalContention 0
scalar RSUScenario.rsu[0].nic.mac1609_4 totalBusyTime 47.012986265879
scalar RSUScenario.metricsApplication.metrics packetsDeliveredToMetrics 150
scalar RSUScenario.metricsApplication.metrics throughputMetric 1.006711409396
scalar RSUScenario.metricsApplication.metrics throughputMetric:last 1.006711409396
attr source throughputSignal
attr title "throughputMetric, last"
scalar RSUScenario.metricsApplication.metrics throughputMetric:count 150
attr source throughputSignal
attr title "throughputMetric, count"
scalar RSUScenario.metricsApplication.metrics throughputMetric:sum 154.58451392198
attr source throughputSignal
attr title "throughputMetric, sum"
scalar RSUScenario.metricsApplication.metrics throughputMetric:mean 1.0305634261465
attr source throughputSignal
attr title "throughputMetric, mean"
scalar RSUScenario.metricsApplication.appl generatedWSMs 0
scalar RSUScenario.metricsApplication.appl receivedWSMs 0
scalar RSUScenario.metricsApplication.appl generatedBSMs 0
scalar RSUScenario.metricsApplication.appl receivedBSMs 0
scalar RSUScenario.metricsApplication.appl generatedWSAs 0
scalar RSUScenario.metricsApplication.appl receivedWSAs 0
scalar RSUScenario.metricsApplication.appl beaconInterval 1
scalar RSUScenario.metricsApplication.nic.phy80211p busyTime 0
scalar RSUScenario.metricsApplication.nic.phy80211p ncollisions 0
scalar RSUScenario.metricsApplication.nic.mac1609_4 throughputMetricMac 0
scalar RSUScenario.metricsApplication.nic.mac1609_4 throughputMbps 0
scalar RSUScenario.metricsApplication.nic.mac1609_4 throughputControlMbps 0
scalar RSUScenario.metricsApplication.nic.mac1609_4 receivedFramesLowerMsg 0
scalar RSUScenario.metricsApplication.nic.mac1609_4 receivedBitsLowerPackets 0
scalar RSUScenario.metricsApplication.nic.mac1609_4 receivedBitsLoserWsm 0
scalar RSUScenario.metricsApplication.nic.mac1609_4 packetsNotForMe 0
scalar RSUScenario.metricsApplication.nic.mac1609_4 receivedTotalBits 0
scalar RSUScenario.metricsApplication.nic.mac1609_4 collisionsPktNonDecoded 0
scalar RSUScenario.metricsApplication.nic.mac1609_4 chUtilizationCCH 0
scalar RSUScenario.metricsApplication.nic.mac1609_4 chUtilizationSCH1 0
scalar RSUScenario.metricsApplication.nic.mac1609_4 chUtilizationSCH2 0
scalar RSUScenario.metricsApplication.nic.mac1609_4 chUtilizationSCH3 0
scalar RSUScenario.metricsApplication.nic.mac1609_4 chUtilizationSCH4 0
scalar RSUScenario.metricsApplication.nic.mac1609_4 chUtilizationHPPS 0
scalar RSUScenario.metricsApplication.nic.mac1609_4 chUtilizationCRIT_SOL 0
scalar RSUScenario.metricsApplication.nic.mac1609_4 previousSignalQualityCCH 0
scalar RSUScenario.metricsApplication.nic.mac1609_4 previousSignalQualitySCH1 0
scalar RSUScenario.metricsApplication.nic.mac1609_4 previousSignalQualitySCH2 0
scalar RSUScenario.metricsApplication.nic.mac1609_4 previousSignalQualitySCH3 0
scalar RSUScenario.metricsApplication.nic.mac1609_4 previousSignalQualitySCH4 0
scalar RSUScenario.metricsApplication.nic.mac1609_4 chPacketsCCH 0
scalar RSUScenario.metricsApplication.nic.mac1609_4 chPacketsSCH1 0
scalar RSUScenario.metricsApplication.nic.mac1609_4 chPacketsSCH2 0
scalar RSUScenario.metricsApplication.nic.mac1609_4 chPacketsSCH3 0
scalar RSUScenario.metricsApplication.nic.mac1609_4 chPacketsSCH4 0
scalar RSUScenario.metricsApplication.nic.mac1609_4 numberOfNeighbors 0
scalar RSUScenario.metricsApplication.nic.mac1609_4 ReceivedUnicastPackets 0
scalar RSUScenario.metricsApplication.nic.mac1609_4 ReceivedBroadcasts 0
scalar RSUScenario.metricsApplication.nic.mac1609_4 SentPackets 0
scalar RSUScenario.metricsApplication.nic.mac1609_4 SentAcknowledgements 0
scalar RSUScenario.metricsApplication.nic.mac1609_4 SNIRLostPackets 0
scalar RSUScenario.metricsApplication.nic.mac1609_4 RXTXLostPackets 0
scalar RSUScenario.metricsApplication.nic.mac1609_4 TotalLostPackets 0
scalar RSUScenario.metricsApplication.nic.mac1609_4 DroppedPacketsInMac 0
scalar RSUScenario.metricsApplication.nic.mac1609_4 TooLittleTime 0
scalar RSUScenario.metricsApplication.nic.mac1609_4 TimesIntoBackoff 0
scalar RSUScenario.metricsApplication.nic.mac1609_4 SlotsBackoff 0
scalar RSUScenario.metricsApplication.nic.mac1609_4 NumInternalContention 0
scalar RSUScenario.metricsApplication.nic.mac1609_4 totalBusyTime 74.800180829011
scalar RSUScenario.metricsApplication.nic.mac1609_4 throughputMetricMac:last nan
attr source throughputSignalMac
attr title "throughputMetricMac, last"
scalar RSUScenario.metricsApplication.nic.mac1609_4 throughputMetricMac:count 0
attr source throughputSignalMac
attr title "throughputMetricMac, count"
scalar RSUScenario.metricsApplication.nic.mac1609_4 throughputMetricMac:sum 0
attr source throughputSignalMac
attr title "throughputMetricMac, sum"
scalar RSUScenario.metricsApplication.nic.mac1609_4 throughputMetricMac:mean -nan
attr source throughputSignalMac
attr title "throughputMetricMac, mean"

