version 2
run CCH_SCH_Safety_B_100Bytes_Q_1-0-20181019-02:57:51-20566
attr configname CCH_SCH_Safety_B_100Bytes_Q_1
attr datetime 20181019-02:57:51
attr experiment CCH_SCH_Safety_B_100Bytes_Q_1
attr inifile omnetpp.ini
attr iterationvars $0=1
attr iterationvarsf 1-
attr measurement $0=1
attr network vanets.RSUScenario
attr processid 20566
attr repetition 0
attr replication #0
attr resultdir results
attr runnumber 0
attr seedset 0
param **.debug false
param **.coreDebug false
param *.annotations.draw false
param *.rsu[*].appl.beaconLengthBits 800bit
param *.node[*].appl.beaconLengthBits 800bit
param *.metricsApplication.appl.beaconLengthBits 800bit
param *.node[*].appl.sendBeacons true
param *.rsu[*].appl.sendBeacons false
param *.metricsApplicaiton[*].appl.sendBeacons false
param *.node[*].appl.dataOnSch true
param *.rsu[*].appl.dataOnSch false
param *.metricsApplication[*].appl.dataOnSch false
param *.node[*].appl.sendData true
param *.rsu[*].appl.sendData true
param *.metricsApplication[*].appl.sendData false
param *.node[*].appl.beaconInterval 0.1s
param *.rsu[*].appl.beaconInterval 0.1s
param *.metricsApplication[*].appl.beaconInterval 0.1s
param *.node[*].appl.beaconPriority 3
param *.rsu[*].appl.beaconPriority 3
param *.metricsApplication[*].appl.beaconPriority 3
param *.node[*].appl.dataPriority 2
param *.rsu[*].appl.dataPriority 2
param *.metricsApplication.appl.beaconPriority 2
param *.**.nic.mac1609_4.queueSize 1
param *.**.nic.mac1609_4.useServiceChannel true
param *.manager.launchConfig "xmldoc(\"erlangen.launchd.xml\")"
param **.debug false
param **.coreDebug false
param *.playgroundSizeX 2500m
param *.playgroundSizeY 2500m
param *.playgroundSizeZ 50m
param *.annotations.draw false
param *.obstacles.debug false
param *.obstacles.obstacles "xmldoc(\"config.xml\", \"//AnalogueModel[@type='SimpleObstacleShadowing']/obstacles\")"
param *.world.useTorus false
param *.world.use2D false
param *.manager.updateInterval 1s
param *.manager.host "\"localhost\""
param *.manager.port 9999
param *.manager.autoShutdown true
param *.manager.launchConfig "xmldoc(\"erlangen.launchd.xml\")"
param *.manager.moduleType "\"vanets.CarWithMetrics\""
param *.manager.moduleName "\"node\""
param *.manager.moduleDisplayString "\"\""
param *.manager.margin 25
param *.manager.numVehicles 5
param *.manager.debug true
param *.rsu[0].mobility.x 2000
param *.rsu[0].mobility.y 2000
param *.rsu[0].mobility.z 3
param *.rsu[*].applType "\"TraCIDemoRSU11p\""
param *.rsu[*].appl.headerLength "80 bit"
param *.rsu[*].appl.sendBeacons false
param *.rsu[*].appl.dataOnSch false
param *.rsu[*].appl.beaconInterval 1s
param *.rsu[*].appl.beaconUserPriority 7
param *.rsu[*].appl.dataUserPriority 5
param *.metricsApplication.applType "\"TraCIDemoRSU11p\""
param *.metricsApplication.appl.debug false
param *.metricsApplication.appl.headerLength "80 bit"
param *.metricsApplication.appl.sendBeacons false
param *.metricsApplication.appl.dataOnSch false
param *.metricsApplication.appl.beaconInterval 1s
param *.metricsApplication.appl.beaconUserPriority 7
param *.metricsApplication.appl.dataUserPriority 2
param *.connectionManager.sendDirect true
param *.connectionManager.maxInterfDist 2600m
param *.connectionManager.drawMaxIntfDist false
param *.**.nic.mac1609_4.useServiceChannel false
param *.**.nic.mac1609_4.txPower 100mW
param *.**.nic.mac1609_4.bitrate 6Mbps
param *.**.nic.phy80211p.sensitivity -89dBm
param *.**.nic.mac1609_4.queueSize 1
param *.**.nic.phy80211p.useThermalNoise true
param *.**.nic.phy80211p.thermalNoise -110dBm
param *.**.nic.phy80211p.decider "xmldoc(\"config.xml\", \"/root/Decider[@type='Decider80211p']\")"
param *.**.nic.phy80211p.decider.collectCollisionStats true
param *.**.nic.phy80211p.analogueModels "xmldoc(\"config.xml\")"
param *.**.nic.phy80211p.usePropagationDelay true
param *.**.nic.phy80211p.collectCollisionStatistics true
param *.**.nic.phy80211p.antenna "xmldoc(\"antenna.xml\", \"/root/Antenna[@id='monopole']\")"
param *.node[*].applType "\"TraCIDemo11p\""
param *.node[*].appl.headerLength "80 bit"
param *.node[*].appl.sendBeacons false
param *.node[*].appl.dataOnSch false
param *.node[*].appl.beaconInterval 1s
param *.node[*].veinsmobilityType.debug true
param *.node[*].veinsmobility.x 0
param *.node[*].veinsmobility.y 0
param *.node[*].veinsmobility.z 1.895
param *.node[*0].veinsmobility.accidentCount 1
param *.node[*0].veinsmobility.accidentStart 10s
param *.node[*0].veinsmobility.accidentDuration 30s

scalar RSUScenario.node[1].appl generatedWSMs 1
scalar RSUScenario.node[1].appl receivedWSMs 47
scalar RSUScenario.node[1].appl generatedBSMs 216784
scalar RSUScenario.node[1].appl receivedBSMs 160761
scalar RSUScenario.node[1].appl generatedWSAs 0
scalar RSUScenario.node[1].appl receivedWSAs 0
scalar RSUScenario.node[1].appl beaconInterval 0.1
scalar RSUScenario.node[1].nic.phy80211p busyTime 0.83500081217659
scalar RSUScenario.node[1].nic.phy80211p ncollisions 124001
scalar RSUScenario.node[1].nic.mac1609_4 throughputMetricMac 804.2402868599
scalar RSUScenario.node[1].nic.mac1609_4 throughputMbps 0.70778410554753
scalar RSUScenario.node[1].nic.mac1609_4 throughputControlMbps 0
scalar RSUScenario.node[1].nic.mac1609_4 receivedFramesLowerMsg 160808
scalar RSUScenario.node[1].nic.mac1609_4 receivedBitsLowerPackets 0
scalar RSUScenario.node[1].nic.mac1609_4 receivedBitsLoserWsm 0
scalar RSUScenario.node[1].nic.mac1609_4 packetsNotForMe 0
scalar RSUScenario.node[1].nic.mac1609_4 receivedTotalBits 141521568
scalar RSUScenario.node[1].nic.mac1609_4 collisionsPktNonDecoded 0
scalar RSUScenario.node[1].nic.mac1609_4 chUtilizationCCH 14.347528
scalar RSUScenario.node[1].nic.mac1609_4 chUtilizationSCH1 0
scalar RSUScenario.node[1].nic.mac1609_4 chUtilizationSCH2 0
scalar RSUScenario.node[1].nic.mac1609_4 chUtilizationSCH3 0.000465
scalar RSUScenario.node[1].nic.mac1609_4 chUtilizationSCH4 0
scalar RSUScenario.node[1].nic.mac1609_4 chUtilizationHPPS 0
scalar RSUScenario.node[1].nic.mac1609_4 chUtilizationCRIT_SOL 0
scalar RSUScenario.node[1].nic.mac1609_4 previousSignalQualityCCH 100
scalar RSUScenario.node[1].nic.mac1609_4 previousSignalQualitySCH1 0
scalar RSUScenario.node[1].nic.mac1609_4 previousSignalQualitySCH2 0
scalar RSUScenario.node[1].nic.mac1609_4 previousSignalQualitySCH3 100
scalar RSUScenario.node[1].nic.mac1609_4 previousSignalQualitySCH4 0
scalar RSUScenario.node[1].nic.mac1609_4 chPacketsCCH 115392
scalar RSUScenario.node[1].nic.mac1609_4 chPacketsSCH1 0
scalar RSUScenario.node[1].nic.mac1609_4 chPacketsSCH2 0
scalar RSUScenario.node[1].nic.mac1609_4 chPacketsSCH3 2
scalar RSUScenario.node[1].nic.mac1609_4 chPacketsSCH4 0
scalar RSUScenario.node[1].nic.mac1609_4 ReceivedUnicastPackets 0
scalar RSUScenario.node[1].nic.mac1609_4 ReceivedBroadcasts 160808
scalar RSUScenario.node[1].nic.mac1609_4 SentPackets 58313
scalar RSUScenario.node[1].nic.mac1609_4 SentAcknowledgements 0
scalar RSUScenario.node[1].nic.mac1609_4 SNIRLostPackets 695832
scalar RSUScenario.node[1].nic.mac1609_4 RXTXLostPackets 150503
scalar RSUScenario.node[1].nic.mac1609_4 TotalLostPackets 846335
scalar RSUScenario.node[1].nic.mac1609_4 DroppedPacketsInMac 158471
scalar RSUScenario.node[1].nic.mac1609_4 TooLittleTime 1165
scalar RSUScenario.node[1].nic.mac1609_4 TimesIntoBackoff 94347
scalar RSUScenario.node[1].nic.mac1609_4 SlotsBackoff 139575
scalar RSUScenario.node[1].nic.mac1609_4 NumInternalContention 0
scalar RSUScenario.node[1].nic.mac1609_4 totalBusyTime 66.987143212664
scalar RSUScenario.node[1].nic.mac1609_4 throughputMetricMac:last 804.2402868599
attr source throughputSignalMac
attr title "throughputMetricMac, last"
scalar RSUScenario.node[1].nic.mac1609_4 throughputMetricMac:count 160808
attr source throughputSignalMac
attr title "throughputMetricMac, count"
scalar RSUScenario.node[1].nic.mac1609_4 throughputMetricMac:sum 133460204.58166
attr source throughputSignalMac
attr title "throughputMetricMac, sum"
scalar RSUScenario.node[1].nic.mac1609_4 throughputMetricMac:mean 829.93510634829
attr source throughputSignalMac
attr title "throughputMetricMac, mean"
scalar RSUScenario.node[1].veinsmobility startTime 3000
scalar RSUScenario.node[1].veinsmobility totalTime 197000
scalar RSUScenario.node[1].veinsmobility stopTime 200000
scalar RSUScenario.node[1].veinsmobility minSpeed 1.3195987516439
scalar RSUScenario.node[1].veinsmobility maxSpeed 1.3888888888889
scalar RSUScenario.node[1].veinsmobility totalDistance 266.75224284019
scalar RSUScenario.node[1].veinsmobility totalCO2Emission 230.42600343821
scalar RSUScenario.node[4].appl generatedWSMs 1
scalar RSUScenario.node[4].appl receivedWSMs 47
scalar RSUScenario.node[4].appl generatedBSMs 228108
scalar RSUScenario.node[4].appl receivedBSMs 169771
scalar RSUScenario.node[4].appl generatedWSAs 0
scalar RSUScenario.node[4].appl receivedWSAs 0
scalar RSUScenario.node[4].appl beaconInterval 0.1
scalar RSUScenario.node[4].nic.phy80211p busyTime 0.8640282127596
scalar RSUScenario.node[4].nic.phy80211p ncollisions 111156
scalar RSUScenario.node[4].nic.mac1609_4 throughputMetricMac 849.3015089035
scalar RSUScenario.node[4].nic.mac1609_4 throughputMbps 0.74743798094567
scalar RSUScenario.node[4].nic.mac1609_4 throughputControlMbps 0
scalar RSUScenario.node[4].nic.mac1609_4 receivedFramesLowerMsg 169818
scalar RSUScenario.node[4].nic.mac1609_4 receivedBitsLowerPackets 0
scalar RSUScenario.node[4].nic.mac1609_4 receivedBitsLoserWsm 0
scalar RSUScenario.node[4].nic.mac1609_4 packetsNotForMe 0
scalar RSUScenario.node[4].nic.mac1609_4 receivedTotalBits 149450368
scalar RSUScenario.node[4].nic.mac1609_4 collisionsPktNonDecoded 0
scalar RSUScenario.node[4].nic.mac1609_4 chUtilizationCCH 14.550906
scalar RSUScenario.node[4].nic.mac1609_4 chUtilizationSCH1 0
scalar RSUScenario.node[4].nic.mac1609_4 chUtilizationSCH2 0
scalar RSUScenario.node[4].nic.mac1609_4 chUtilizationSCH3 0.000465
scalar RSUScenario.node[4].nic.mac1609_4 chUtilizationSCH4 0
scalar RSUScenario.node[4].nic.mac1609_4 chUtilizationHPPS 0
scalar RSUScenario.node[4].nic.mac1609_4 chUtilizationCRIT_SOL 0
scalar RSUScenario.node[4].nic.mac1609_4 previousSignalQualityCCH 100
scalar RSUScenario.node[4].nic.mac1609_4 previousSignalQualitySCH1 0
scalar RSUScenario.node[4].nic.mac1609_4 previousSignalQualitySCH2 0
scalar RSUScenario.node[4].nic.mac1609_4 previousSignalQualitySCH3 100
scalar RSUScenario.node[4].nic.mac1609_4 previousSignalQualitySCH4 0
scalar RSUScenario.node[4].nic.mac1609_4 chPacketsCCH 117900
scalar RSUScenario.node[4].nic.mac1609_4 chPacketsSCH1 0
scalar RSUScenario.node[4].nic.mac1609_4 chPacketsSCH2 0
scalar RSUScenario.node[4].nic.mac1609_4 chPacketsSCH3 2
scalar RSUScenario.node[4].nic.mac1609_4 chPacketsSCH4 0
scalar RSUScenario.node[4].nic.mac1609_4 ReceivedUnicastPackets 0
scalar RSUScenario.node[4].nic.mac1609_4 ReceivedBroadcasts 169818
scalar RSUScenario.node[4].nic.mac1609_4 SentPackets 59515
scalar RSUScenario.node[4].nic.mac1609_4 SentAcknowledgements 0
scalar RSUScenario.node[4].nic.mac1609_4 SNIRLostPackets 676120
scalar RSUScenario.node[4].nic.mac1609_4 RXTXLostPackets 157813
scalar RSUScenario.node[4].nic.mac1609_4 TotalLostPackets 833933
scalar RSUScenario.node[4].nic.mac1609_4 DroppedPacketsInMac 168593
scalar RSUScenario.node[4].nic.mac1609_4 TooLittleTime 577
scalar RSUScenario.node[4].nic.mac1609_4 TimesIntoBackoff 96426
scalar RSUScenario.node[4].nic.mac1609_4 SlotsBackoff 142520
scalar RSUScenario.node[4].nic.mac1609_4 NumInternalContention 0
scalar RSUScenario.node[4].nic.mac1609_4 totalBusyTime 65.867689276121
scalar RSUScenario.node[4].nic.mac1609_4 throughputMetricMac:last 849.3015089035
attr source throughputSignalMac
attr title "throughputMetricMac, last"
scalar RSUScenario.node[4].nic.mac1609_4 throughputMetricMac:count 169818
attr source throughputSignalMac
attr title "throughputMetricMac, count"
scalar RSUScenario.node[4].nic.mac1609_4 throughputMetricMac:sum 141687971.77457
attr source throughputSignalMac
attr title "throughputMetricMac, sum"
scalar RSUScenario.node[4].nic.mac1609_4 throughputMetricMac:mean 834.35190483086
attr source throughputSignalMac
attr title "throughputMetricMac, mean"
scalar RSUScenario.node[4].veinsmobility startTime 12000
scalar RSUScenario.node[4].veinsmobility totalTime 188000
scalar RSUScenario.node[4].veinsmobility stopTime 200000
scalar RSUScenario.node[4].veinsmobility minSpeed 0.82437053541553
scalar RSUScenario.node[4].veinsmobility maxSpeed 1.3888888888889
scalar RSUScenario.node[4].veinsmobility totalDistance 252.71420418519
scalar RSUScenario.node[4].veinsmobility totalCO2Emission 219.94251658444
scalar RSUScenario.node[0].appl generatedWSMs 3
scalar RSUScenario.node[0].appl receivedWSMs 18
scalar RSUScenario.node[0].appl generatedBSMs 81976
scalar RSUScenario.node[0].appl receivedBSMs 59642
scalar RSUScenario.node[0].appl generatedWSAs 0
scalar RSUScenario.node[0].appl receivedWSAs 0
scalar RSUScenario.node[0].appl beaconInterval 0.1
scalar RSUScenario.node[0].nic.phy80211p busyTime 0.21291328643114
scalar RSUScenario.node[0].nic.phy80211p ncollisions 60066
scalar RSUScenario.node[0].nic.mac1609_4 throughputMetricMac 452.14414904027
scalar RSUScenario.node[0].nic.mac1609_4 throughputMbps 0.39791740840022
scalar RSUScenario.node[0].nic.mac1609_4 throughputControlMbps 0
scalar RSUScenario.node[0].nic.mac1609_4 receivedFramesLowerMsg 59660
scalar RSUScenario.node[0].nic.mac1609_4 receivedBitsLowerPackets 0
scalar RSUScenario.node[0].nic.mac1609_4 receivedBitsLoserWsm 0
scalar RSUScenario.node[0].nic.mac1609_4 packetsNotForMe 0
scalar RSUScenario.node[0].nic.mac1609_4 receivedTotalBits 52504832
scalar RSUScenario.node[0].nic.mac1609_4 collisionsPktNonDecoded 0
scalar RSUScenario.node[0].nic.mac1609_4 chUtilizationCCH 7.342161
scalar RSUScenario.node[0].nic.mac1609_4 chUtilizationSCH1 0
scalar RSUScenario.node[0].nic.mac1609_4 chUtilizationSCH2 0
scalar RSUScenario.node[0].nic.mac1609_4 chUtilizationSCH3 0.001395
scalar RSUScenario.node[0].nic.mac1609_4 chUtilizationSCH4 0
scalar RSUScenario.node[0].nic.mac1609_4 chUtilizationHPPS 0
scalar RSUScenario.node[0].nic.mac1609_4 chUtilizationCRIT_SOL 0
scalar RSUScenario.node[0].nic.mac1609_4 previousSignalQualityCCH 100
scalar RSUScenario.node[0].nic.mac1609_4 previousSignalQualitySCH1 0
scalar RSUScenario.node[0].nic.mac1609_4 previousSignalQualitySCH2 0
scalar RSUScenario.node[0].nic.mac1609_4 previousSignalQualitySCH3 100
scalar RSUScenario.node[0].nic.mac1609_4 previousSignalQualitySCH4 0
scalar RSUScenario.node[0].nic.mac1609_4 chPacketsCCH 52791
scalar RSUScenario.node[0].nic.mac1609_4 chPacketsSCH1 0
scalar RSUScenario.node[0].nic.mac1609_4 chPacketsSCH2 0
scalar RSUScenario.node[0].nic.mac1609_4 chPacketsSCH3 6
scalar RSUScenario.node[0].nic.mac1609_4 chPacketsSCH4 0
scalar RSUScenario.node[0].nic.mac1609_4 ReceivedUnicastPackets 0
scalar RSUScenario.node[0].nic.mac1609_4 ReceivedBroadcasts 59660
scalar RSUScenario.node[0].nic.mac1609_4 SentPackets 26772
scalar RSUScenario.node[0].nic.mac1609_4 SentAcknowledgements 0
scalar RSUScenario.node[0].nic.mac1609_4 SNIRLostPackets 161012
scalar RSUScenario.node[0].nic.mac1609_4 RXTXLostPackets 26720
scalar RSUScenario.node[0].nic.mac1609_4 TotalLostPackets 187732
scalar RSUScenario.node[0].nic.mac1609_4 DroppedPacketsInMac 55207
scalar RSUScenario.node[0].nic.mac1609_4 TooLittleTime 524
scalar RSUScenario.node[0].nic.mac1609_4 TimesIntoBackoff 40513
scalar RSUScenario.node[0].nic.mac1609_4 SlotsBackoff 59805
scalar RSUScenario.node[0].nic.mac1609_4 NumInternalContention 0
scalar RSUScenario.node[0].nic.mac1609_4 totalBusyTime 39.791709330343
scalar RSUScenario.node[0].nic.mac1609_4 throughputMetricMac:last 452.14414904027
attr source throughputSignalMac
attr title "throughputMetricMac, last"
scalar RSUScenario.node[0].nic.mac1609_4 throughputMetricMac:count 59660
attr source throughputSignalMac
attr title "throughputMetricMac, count"
scalar RSUScenario.node[0].nic.mac1609_4 throughputMetricMac:sum 33013916.257073
attr source throughputSignalMac
attr title "throughputMetricMac, sum"
scalar RSUScenario.node[0].nic.mac1609_4 throughputMetricMac:mean 553.36768784903
attr source throughputSignalMac
attr title "throughputMetricMac, mean"
scalar RSUScenario.node[0].veinsmobility startTime 1000
scalar RSUScenario.node[0].veinsmobility totalTime 199000
scalar RSUScenario.node[0].veinsmobility stopTime 200000
scalar RSUScenario.node[0].veinsmobility minSpeed 0
scalar RSUScenario.node[0].veinsmobility maxSpeed 13.998128671225
scalar RSUScenario.node[0].veinsmobility totalDistance 2198.0734118155
scalar RSUScenario.node[0].veinsmobility totalCO2Emission 451.91260206671
scalar RSUScenario.node[5].appl generatedWSMs 1
scalar RSUScenario.node[5].appl receivedWSMs 47
scalar RSUScenario.node[5].appl generatedBSMs 210083
scalar RSUScenario.node[5].appl receivedBSMs 156953
scalar RSUScenario.node[5].appl generatedWSAs 0
scalar RSUScenario.node[5].appl receivedWSAs 0
scalar RSUScenario.node[5].appl beaconInterval 0.1
scalar RSUScenario.node[5].nic.phy80211p busyTime 0.88750229507544
scalar RSUScenario.node[5].nic.phy80211p ncollisions 119901
scalar RSUScenario.node[5].nic.mac1609_4 throughputMetricMac 785.19554308298
scalar RSUScenario.node[5].nic.mac1609_4 throughputMbps 0.69102473102387
scalar RSUScenario.node[5].nic.mac1609_4 throughputControlMbps 0
scalar RSUScenario.node[5].nic.mac1609_4 receivedFramesLowerMsg 157000
scalar RSUScenario.node[5].nic.mac1609_4 receivedBitsLowerPackets 0
scalar RSUScenario.node[5].nic.mac1609_4 receivedBitsLoserWsm 0
scalar RSUScenario.node[5].nic.mac1609_4 packetsNotForMe 0
scalar RSUScenario.node[5].nic.mac1609_4 receivedTotalBits 138170528
scalar RSUScenario.node[5].nic.mac1609_4 collisionsPktNonDecoded 0
scalar RSUScenario.node[5].nic.mac1609_4 chUtilizationCCH 13.665613
scalar RSUScenario.node[5].nic.mac1609_4 chUtilizationSCH1 0
scalar RSUScenario.node[5].nic.mac1609_4 chUtilizationSCH2 0
scalar RSUScenario.node[5].nic.mac1609_4 chUtilizationSCH3 0.000465
scalar RSUScenario.node[5].nic.mac1609_4 chUtilizationSCH4 0
scalar RSUScenario.node[5].nic.mac1609_4 chUtilizationHPPS 0
scalar RSUScenario.node[5].nic.mac1609_4 chUtilizationCRIT_SOL 0
scalar RSUScenario.node[5].nic.mac1609_4 previousSignalQualityCCH 100
scalar RSUScenario.node[5].nic.mac1609_4 previousSignalQualitySCH1 0
scalar RSUScenario.node[5].nic.mac1609_4 previousSignalQualitySCH2 0
scalar RSUScenario.node[5].nic.mac1609_4 previousSignalQualitySCH3 100
scalar RSUScenario.node[5].nic.mac1609_4 previousSignalQualitySCH4 0
scalar RSUScenario.node[5].nic.mac1609_4 chPacketsCCH 111012
scalar RSUScenario.node[5].nic.mac1609_4 chPacketsSCH1 0
scalar RSUScenario.node[5].nic.mac1609_4 chPacketsSCH2 0
scalar RSUScenario.node[5].nic.mac1609_4 chPacketsSCH3 2
scalar RSUScenario.node[5].nic.mac1609_4 chPacketsSCH4 0
scalar RSUScenario.node[5].nic.mac1609_4 ReceivedUnicastPackets 0
scalar RSUScenario.node[5].nic.mac1609_4 ReceivedBroadcasts 157000
scalar RSUScenario.node[5].nic.mac1609_4 SentPackets 56078
scalar RSUScenario.node[5].nic.mac1609_4 SentAcknowledgements 0
scalar RSUScenario.node[5].nic.mac1609_4 SNIRLostPackets 688812
scalar RSUScenario.node[5].nic.mac1609_4 RXTXLostPackets 152409
scalar RSUScenario.node[5].nic.mac1609_4 TotalLostPackets 841221
scalar RSUScenario.node[5].nic.mac1609_4 DroppedPacketsInMac 154005
scalar RSUScenario.node[5].nic.mac1609_4 TooLittleTime 521
scalar RSUScenario.node[5].nic.mac1609_4 TimesIntoBackoff 91168
scalar RSUScenario.node[5].nic.mac1609_4 SlotsBackoff 134990
scalar RSUScenario.node[5].nic.mac1609_4 NumInternalContention 0
scalar RSUScenario.node[5].nic.mac1609_4 totalBusyTime 64.415342349812
scalar RSUScenario.node[5].nic.mac1609_4 throughputMetricMac:last 785.19554308298
attr source throughputSignalMac
attr title "throughputMetricMac, last"
scalar RSUScenario.node[5].nic.mac1609_4 throughputMetricMac:count 157000
attr source throughputSignalMac
attr title "throughputMetricMac, count"
scalar RSUScenario.node[5].nic.mac1609_4 throughputMetricMac:sum 117046911.8747
attr source throughputSignalMac
attr title "throughputMetricMac, sum"
scalar RSUScenario.node[5].nic.mac1609_4 throughputMetricMac:mean 745.52173168598
attr source throughputSignalMac
attr title "throughputMetricMac, mean"
scalar RSUScenario.node[5].veinsmobility startTime 17000
scalar RSUScenario.node[5].veinsmobility totalTime 183000
scalar RSUScenario.node[5].veinsmobility stopTime 200000
scalar RSUScenario.node[5].veinsmobility minSpeed 0.83774402481715
scalar RSUScenario.node[5].veinsmobility maxSpeed 13.958589120226
scalar RSUScenario.node[5].veinsmobility totalDistance 356.08221082044
scalar RSUScenario.node[5].veinsmobility totalCO2Emission 247.75260550498
scalar RSUScenario.node[14].appl generatedWSMs 1
scalar RSUScenario.node[14].appl receivedWSMs 26
scalar RSUScenario.node[14].appl generatedBSMs 90558
scalar RSUScenario.node[14].appl receivedBSMs 66260
scalar RSUScenario.node[14].appl generatedWSAs 0
scalar RSUScenario.node[14].appl receivedWSAs 0
scalar RSUScenario.node[14].appl beaconInterval 0.1
scalar RSUScenario.node[14].nic.phy80211p busyTime 1.1423293333252
scalar RSUScenario.node[14].nic.phy80211p ncollisions 115209
scalar RSUScenario.node[14].nic.mac1609_4 throughputMetricMac 331.51255967251
scalar RSUScenario.node[14].nic.mac1609_4 throughputMbps 0.29176017976588
scalar RSUScenario.node[14].nic.mac1609_4 throughputControlMbps 0
scalar RSUScenario.node[14].nic.mac1609_4 receivedFramesLowerMsg 66286
scalar RSUScenario.node[14].nic.mac1609_4 receivedBitsLowerPackets 0
scalar RSUScenario.node[14].nic.mac1609_4 receivedBitsLoserWsm 0
scalar RSUScenario.node[14].nic.mac1609_4 packetsNotForMe 0
scalar RSUScenario.node[14].nic.mac1609_4 receivedTotalBits 58337504
scalar RSUScenario.node[14].nic.mac1609_4 collisionsPktNonDecoded 0
scalar RSUScenario.node[14].nic.mac1609_4 chUtilizationCCH 6.604639
scalar RSUScenario.node[14].nic.mac1609_4 chUtilizationSCH1 0
scalar RSUScenario.node[14].nic.mac1609_4 chUtilizationSCH2 0.000465
scalar RSUScenario.node[14].nic.mac1609_4 chUtilizationSCH3 0
scalar RSUScenario.node[14].nic.mac1609_4 chUtilizationSCH4 0
scalar RSUScenario.node[14].nic.mac1609_4 chUtilizationHPPS 0
scalar RSUScenario.node[14].nic.mac1609_4 chUtilizationCRIT_SOL 0
scalar RSUScenario.node[14].nic.mac1609_4 previousSignalQualityCCH 100
scalar RSUScenario.node[14].nic.mac1609_4 previousSignalQualitySCH1 0
scalar RSUScenario.node[14].nic.mac1609_4 previousSignalQualitySCH2 100
scalar RSUScenario.node[14].nic.mac1609_4 previousSignalQualitySCH3 0
scalar RSUScenario.node[14].nic.mac1609_4 previousSignalQualitySCH4 0
scalar RSUScenario.node[14].nic.mac1609_4 chPacketsCCH 54200
scalar RSUScenario.node[14].nic.mac1609_4 chPacketsSCH1 0
scalar RSUScenario.node[14].nic.mac1609_4 chPacketsSCH2 2
scalar RSUScenario.node[14].nic.mac1609_4 chPacketsSCH3 0
scalar RSUScenario.node[14].nic.mac1609_4 chPacketsSCH4 0
scalar RSUScenario.node[14].nic.mac1609_4 ReceivedUnicastPackets 0
scalar RSUScenario.node[14].nic.mac1609_4 ReceivedBroadcasts 66286
scalar RSUScenario.node[14].nic.mac1609_4 SentPackets 27488
scalar RSUScenario.node[14].nic.mac1609_4 SentAcknowledgements 0
scalar RSUScenario.node[14].nic.mac1609_4 SNIRLostPackets 611920
scalar RSUScenario.node[14].nic.mac1609_4 RXTXLostPackets 102501
scalar RSUScenario.node[14].nic.mac1609_4 TotalLostPackets 714421
scalar RSUScenario.node[14].nic.mac1609_4 DroppedPacketsInMac 63070
scalar RSUScenario.node[14].nic.mac1609_4 TooLittleTime 327
scalar RSUScenario.node[14].nic.mac1609_4 TimesIntoBackoff 45918
scalar RSUScenario.node[14].nic.mac1609_4 SlotsBackoff 67036
scalar RSUScenario.node[14].nic.mac1609_4 NumInternalContention 0
scalar RSUScenario.node[14].nic.mac1609_4 totalBusyTime 40.378362837192
scalar RSUScenario.node[14].nic.mac1609_4 throughputMetricMac:last 331.51255967251
attr source throughputSignalMac
attr title "throughputMetricMac, last"
scalar RSUScenario.node[14].nic.mac1609_4 throughputMetricMac:count 66286
attr source throughputSignalMac
attr title "throughputMetricMac, count"
scalar RSUScenario.node[14].nic.mac1609_4 throughputMetricMac:sum 14376364.341299
attr source throughputSignalMac
attr title "throughputMetricMac, sum"
scalar RSUScenario.node[14].nic.mac1609_4 throughputMetricMac:mean 216.88387202877
attr source throughputSignalMac
attr title "throughputMetricMac, mean"
scalar RSUScenario.node[14].veinsmobility startTime 86000
scalar RSUScenario.node[14].veinsmobility totalTime 114000
scalar RSUScenario.node[14].veinsmobility stopTime 200000
scalar RSUScenario.node[14].veinsmobility minSpeed 0.44683507437876
scalar RSUScenario.node[14].veinsmobility maxSpeed 7.1334462066043
scalar RSUScenario.node[14].veinsmobility totalDistance 199.48821822597
scalar RSUScenario.node[14].veinsmobility totalCO2Emission 137.46632826726
scalar RSUScenario.node[15].appl generatedWSMs 1
scalar RSUScenario.node[15].appl receivedWSMs 26
scalar RSUScenario.node[15].appl generatedBSMs 88751
scalar RSUScenario.node[15].appl receivedBSMs 64722
scalar RSUScenario.node[15].appl generatedWSAs 0
scalar RSUScenario.node[15].appl receivedWSAs 0
scalar RSUScenario.node[15].appl beaconInterval 0.1
scalar RSUScenario.node[15].nic.phy80211p busyTime 1.1478099999918
scalar RSUScenario.node[15].nic.phy80211p ncollisions 113055
scalar RSUScenario.node[15].nic.mac1609_4 throughputMetricMac 323.82064412872
scalar RSUScenario.node[15].nic.mac1609_4 throughputMbps 0.28499129408733
scalar RSUScenario.node[15].nic.mac1609_4 throughputControlMbps 0
scalar RSUScenario.node[15].nic.mac1609_4 receivedFramesLowerMsg 64748
scalar RSUScenario.node[15].nic.mac1609_4 receivedBitsLowerPackets 0
scalar RSUScenario.node[15].nic.mac1609_4 receivedBitsLoserWsm 0
scalar RSUScenario.node[15].nic.mac1609_4 packetsNotForMe 0
scalar RSUScenario.node[15].nic.mac1609_4 receivedTotalBits 56984064
scalar RSUScenario.node[15].nic.mac1609_4 collisionsPktNonDecoded 0
scalar RSUScenario.node[15].nic.mac1609_4 chUtilizationCCH 6.499682
scalar RSUScenario.node[15].nic.mac1609_4 chUtilizationSCH1 0
scalar RSUScenario.node[15].nic.mac1609_4 chUtilizationSCH2 0.000233
scalar RSUScenario.node[15].nic.mac1609_4 chUtilizationSCH3 0
scalar RSUScenario.node[15].nic.mac1609_4 chUtilizationSCH4 0
scalar RSUScenario.node[15].nic.mac1609_4 chUtilizationHPPS 0
scalar RSUScenario.node[15].nic.mac1609_4 chUtilizationCRIT_SOL 0
scalar RSUScenario.node[15].nic.mac1609_4 previousSignalQualityCCH 100
scalar RSUScenario.node[15].nic.mac1609_4 previousSignalQualitySCH1 0
scalar RSUScenario.node[15].nic.mac1609_4 previousSignalQualitySCH2 100
scalar RSUScenario.node[15].nic.mac1609_4 previousSignalQualitySCH3 0
scalar RSUScenario.node[15].nic.mac1609_4 previousSignalQualitySCH4 0
scalar RSUScenario.node[15].nic.mac1609_4 chPacketsCCH 53574
scalar RSUScenario.node[15].nic.mac1609_4 chPacketsSCH1 0
scalar RSUScenario.node[15].nic.mac1609_4 chPacketsSCH2 1
scalar RSUScenario.node[15].nic.mac1609_4 chPacketsSCH3 0
scalar RSUScenario.node[15].nic.mac1609_4 chPacketsSCH4 0
scalar RSUScenario.node[15].nic.mac1609_4 ReceivedUnicastPackets 0
scalar RSUScenario.node[15].nic.mac1609_4 ReceivedBroadcasts 64748
scalar RSUScenario.node[15].nic.mac1609_4 SentPackets 27171
scalar RSUScenario.node[15].nic.mac1609_4 SentAcknowledgements 0
scalar RSUScenario.node[15].nic.mac1609_4 SNIRLostPackets 604793
scalar RSUScenario.node[15].nic.mac1609_4 RXTXLostPackets 99350
scalar RSUScenario.node[15].nic.mac1609_4 TotalLostPackets 704143
scalar RSUScenario.node[15].nic.mac1609_4 DroppedPacketsInMac 61580
scalar RSUScenario.node[15].nic.mac1609_4 TooLittleTime 207
scalar RSUScenario.node[15].nic.mac1609_4 TimesIntoBackoff 45299
scalar RSUScenario.node[15].nic.mac1609_4 SlotsBackoff 66548
scalar RSUScenario.node[15].nic.mac1609_4 NumInternalContention 0
scalar RSUScenario.node[15].nic.mac1609_4 totalBusyTime 39.637087250799
scalar RSUScenario.node[15].nic.mac1609_4 throughputMetricMac:last 323.82064412872
attr source throughputSignalMac
attr title "throughputMetricMac, last"
scalar RSUScenario.node[15].nic.mac1609_4 throughputMetricMac:count 64748
attr source throughputSignalMac
attr title "throughputMetricMac, count"
scalar RSUScenario.node[15].nic.mac1609_4 throughputMetricMac:sum 13627836.409885
attr source throughputSignalMac
attr title "throughputMetricMac, sum"
scalar RSUScenario.node[15].nic.mac1609_4 throughputMetricMac:mean 210.47501714162
attr source throughputSignalMac
attr title "throughputMetricMac, mean"
scalar RSUScenario.node[15].veinsmobility startTime 88000
scalar RSUScenario.node[15].veinsmobility totalTime 112000
scalar RSUScenario.node[15].veinsmobility stopTime 200000
scalar RSUScenario.node[15].veinsmobility minSpeed 0
scalar RSUScenario.node[15].veinsmobility maxSpeed 6.8203385037629
scalar RSUScenario.node[15].veinsmobility totalDistance 191.1297368111
scalar RSUScenario.node[15].veinsmobility totalCO2Emission 135.19762320358
scalar RSUScenario.node[16].appl generatedWSMs 1
scalar RSUScenario.node[16].appl receivedWSMs 27
scalar RSUScenario.node[16].appl generatedBSMs 88293
scalar RSUScenario.node[16].appl receivedBSMs 64250
scalar RSUScenario.node[16].appl generatedWSAs 0
scalar RSUScenario.node[16].appl receivedWSAs 0
scalar RSUScenario.node[16].appl beaconInterval 0.1
scalar RSUScenario.node[16].nic.phy80211p busyTime 1.1501446545373
scalar RSUScenario.node[16].nic.phy80211p ncollisions 110559
scalar RSUScenario.node[16].nic.mac1609_4 throughputMetricMac 321.46546107823
scalar RSUScenario.node[16].nic.mac1609_4 throughputMbps 0.28291985331986
scalar RSUScenario.node[16].nic.mac1609_4 throughputControlMbps 0
scalar RSUScenario.node[16].nic.mac1609_4 receivedFramesLowerMsg 64277
scalar RSUScenario.node[16].nic.mac1609_4 receivedBitsLowerPackets 0
scalar RSUScenario.node[16].nic.mac1609_4 receivedBitsLoserWsm 0
scalar RSUScenario.node[16].nic.mac1609_4 packetsNotForMe 0
scalar RSUScenario.node[16].nic.mac1609_4 receivedTotalBits 56569808
scalar RSUScenario.node[16].nic.mac1609_4 collisionsPktNonDecoded 0
scalar RSUScenario.node[16].nic.mac1609_4 chUtilizationCCH 6.560674
scalar RSUScenario.node[16].nic.mac1609_4 chUtilizationSCH1 0
scalar RSUScenario.node[16].nic.mac1609_4 chUtilizationSCH2 0
scalar RSUScenario.node[16].nic.mac1609_4 chUtilizationSCH3 0.000233
scalar RSUScenario.node[16].nic.mac1609_4 chUtilizationSCH4 0
scalar RSUScenario.node[16].nic.mac1609_4 chUtilizationHPPS 0
scalar RSUScenario.node[16].nic.mac1609_4 chUtilizationCRIT_SOL 0
scalar RSUScenario.node[16].nic.mac1609_4 previousSignalQualityCCH 100
scalar RSUScenario.node[16].nic.mac1609_4 previousSignalQualitySCH1 0
scalar RSUScenario.node[16].nic.mac1609_4 previousSignalQualitySCH2 0
scalar RSUScenario.node[16].nic.mac1609_4 previousSignalQualitySCH3 100
scalar RSUScenario.node[16].nic.mac1609_4 previousSignalQualitySCH4 0
scalar RSUScenario.node[16].nic.mac1609_4 chPacketsCCH 53102
scalar RSUScenario.node[16].nic.mac1609_4 chPacketsSCH1 0
scalar RSUScenario.node[16].nic.mac1609_4 chPacketsSCH2 0
scalar RSUScenario.node[16].nic.mac1609_4 chPacketsSCH3 1
scalar RSUScenario.node[16].nic.mac1609_4 chPacketsSCH4 0
scalar RSUScenario.node[16].nic.mac1609_4 ReceivedUnicastPackets 0
scalar RSUScenario.node[16].nic.mac1609_4 ReceivedBroadcasts 64277
scalar RSUScenario.node[16].nic.mac1609_4 SentPackets 26915
scalar RSUScenario.node[16].nic.mac1609_4 SentAcknowledgements 0
scalar RSUScenario.node[16].nic.mac1609_4 SNIRLostPackets 594649
scalar RSUScenario.node[16].nic.mac1609_4 RXTXLostPackets 101121
scalar RSUScenario.node[16].nic.mac1609_4 TotalLostPackets 695770
scalar RSUScenario.node[16].nic.mac1609_4 DroppedPacketsInMac 61378
scalar RSUScenario.node[16].nic.mac1609_4 TooLittleTime 833
scalar RSUScenario.node[16].nic.mac1609_4 TimesIntoBackoff 44436
scalar RSUScenario.node[16].nic.mac1609_4 SlotsBackoff 65355
scalar RSUScenario.node[16].nic.mac1609_4 NumInternalContention 0
scalar RSUScenario.node[16].nic.mac1609_4 totalBusyTime 39.0584050277
scalar RSUScenario.node[16].nic.mac1609_4 throughputMetricMac:last 321.46546107823
attr source throughputSignalMac
attr title "throughputMetricMac, last"
scalar RSUScenario.node[16].nic.mac1609_4 throughputMetricMac:count 64277
attr source throughputSignalMac
attr title "throughputMetricMac, count"
scalar RSUScenario.node[16].nic.mac1609_4 throughputMetricMac:sum 13344281.194585
attr source throughputSignalMac
attr title "throughputMetricMac, sum"
scalar RSUScenario.node[16].nic.mac1609_4 throughputMetricMac:mean 207.60584959761
attr source throughputSignalMac
attr title "throughputMetricMac, mean"
scalar RSUScenario.node[16].veinsmobility startTime 90000
scalar RSUScenario.node[16].veinsmobility totalTime 110000
scalar RSUScenario.node[16].veinsmobility stopTime 200000
scalar RSUScenario.node[16].veinsmobility minSpeed 0.44014457971905
scalar RSUScenario.node[16].veinsmobility maxSpeed 6.3011961638623
scalar RSUScenario.node[16].veinsmobility totalDistance 182.83228921298
scalar RSUScenario.node[16].veinsmobility totalCO2Emission 131.94726579661
scalar RSUScenario.node[17].appl generatedWSMs 1
scalar RSUScenario.node[17].appl receivedWSMs 27
scalar RSUScenario.node[17].appl generatedBSMs 86860
scalar RSUScenario.node[17].appl receivedBSMs 63197
scalar RSUScenario.node[17].appl generatedWSAs 0
scalar RSUScenario.node[17].appl receivedWSAs 0
scalar RSUScenario.node[17].appl beaconInterval 0.1
scalar RSUScenario.node[17].nic.phy80211p busyTime 1.1575840740659
scalar RSUScenario.node[17].nic.phy80211p ncollisions 108451
scalar RSUScenario.node[17].nic.mac1609_4 throughputMetricMac 316.19874597672
scalar RSUScenario.node[17].nic.mac1609_4 throughputMbps 0.27828514399255
scalar RSUScenario.node[17].nic.mac1609_4 throughputControlMbps 0
scalar RSUScenario.node[17].nic.mac1609_4 receivedFramesLowerMsg 63224
scalar RSUScenario.node[17].nic.mac1609_4 receivedBitsLowerPackets 0
scalar RSUScenario.node[17].nic.mac1609_4 receivedBitsLoserWsm 0
scalar RSUScenario.node[17].nic.mac1609_4 packetsNotForMe 0
scalar RSUScenario.node[17].nic.mac1609_4 receivedTotalBits 55643168
scalar RSUScenario.node[17].nic.mac1609_4 collisionsPktNonDecoded 0
scalar RSUScenario.node[17].nic.mac1609_4 chUtilizationCCH 6.36607
scalar RSUScenario.node[17].nic.mac1609_4 chUtilizationSCH1 0
scalar RSUScenario.node[17].nic.mac1609_4 chUtilizationSCH2 0.000465
scalar RSUScenario.node[17].nic.mac1609_4 chUtilizationSCH3 0
scalar RSUScenario.node[17].nic.mac1609_4 chUtilizationSCH4 0
scalar RSUScenario.node[17].nic.mac1609_4 chUtilizationHPPS 0
scalar RSUScenario.node[17].nic.mac1609_4 chUtilizationCRIT_SOL 0
scalar RSUScenario.node[17].nic.mac1609_4 previousSignalQualityCCH 100
scalar RSUScenario.node[17].nic.mac1609_4 previousSignalQualitySCH1 0
scalar RSUScenario.node[17].nic.mac1609_4 previousSignalQualitySCH2 100
scalar RSUScenario.node[17].nic.mac1609_4 previousSignalQualitySCH3 0
scalar RSUScenario.node[17].nic.mac1609_4 previousSignalQualitySCH4 0
scalar RSUScenario.node[17].nic.mac1609_4 chPacketsCCH 52127
scalar RSUScenario.node[17].nic.mac1609_4 chPacketsSCH1 0
scalar RSUScenario.node[17].nic.mac1609_4 chPacketsSCH2 2
scalar RSUScenario.node[17].nic.mac1609_4 chPacketsSCH3 0
scalar RSUScenario.node[17].nic.mac1609_4 chPacketsSCH4 0
scalar RSUScenario.node[17].nic.mac1609_4 ReceivedUnicastPackets 0
scalar RSUScenario.node[17].nic.mac1609_4 ReceivedBroadcasts 63224
scalar RSUScenario.node[17].nic.mac1609_4 SentPackets 26423
scalar RSUScenario.node[17].nic.mac1609_4 SentAcknowledgements 0
scalar RSUScenario.node[17].nic.mac1609_4 SNIRLostPackets 587903
scalar RSUScenario.node[17].nic.mac1609_4 RXTXLostPackets 100084
scalar RSUScenario.node[17].nic.mac1609_4 TotalLostPackets 687987
scalar RSUScenario.node[17].nic.mac1609_4 DroppedPacketsInMac 60437
scalar RSUScenario.node[17].nic.mac1609_4 TooLittleTime 455
scalar RSUScenario.node[17].nic.mac1609_4 TimesIntoBackoff 43969
scalar RSUScenario.node[17].nic.mac1609_4 SlotsBackoff 64796
scalar RSUScenario.node[17].nic.mac1609_4 NumInternalContention 0
scalar RSUScenario.node[17].nic.mac1609_4 totalBusyTime 38.287973548924
scalar RSUScenario.node[17].nic.mac1609_4 throughputMetricMac:last 316.19874597672
attr source throughputSignalMac
attr title "throughputMetricMac, last"
scalar RSUScenario.node[17].nic.mac1609_4 throughputMetricMac:count 63224
attr source throughputSignalMac
attr title "throughputMetricMac, count"
scalar RSUScenario.node[17].nic.mac1609_4 throughputMetricMac:sum 12821371.124178
attr source throughputSignalMac
attr title "throughputMetricMac, sum"
scalar RSUScenario.node[17].nic.mac1609_4 throughputMetricMac:mean 202.79278634977
attr source throughputSignalMac
attr title "throughputMetricMac, mean"
scalar RSUScenario.node[17].veinsmobility startTime 92000
scalar RSUScenario.node[17].veinsmobility totalTime 108000
scalar RSUScenario.node[17].veinsmobility stopTime 200000
scalar RSUScenario.node[17].veinsmobility minSpeed 0.2383977351168
scalar RSUScenario.node[17].veinsmobility maxSpeed 5.4657378624806
scalar RSUScenario.node[17].veinsmobility totalDistance 174.82840037133
scalar RSUScenario.node[17].veinsmobility totalCO2Emission 129.3842554114
scalar RSUScenario.node[18].appl generatedWSMs 1
scalar RSUScenario.node[18].appl receivedWSMs 26
scalar RSUScenario.node[18].appl generatedBSMs 84618
scalar RSUScenario.node[18].appl receivedBSMs 61500
scalar RSUScenario.node[18].appl generatedWSAs 0
scalar RSUScenario.node[18].appl receivedWSAs 0
scalar RSUScenario.node[18].appl beaconInterval 0.1
scalar RSUScenario.node[18].nic.phy80211p busyTime 1.1670720754634
scalar RSUScenario.node[18].nic.phy80211p ncollisions 107245
scalar RSUScenario.node[18].nic.mac1609_4 throughputMetricMac 307.70663106584
scalar RSUScenario.node[18].nic.mac1609_4 throughputMbps 0.27081096259196
scalar RSUScenario.node[18].nic.mac1609_4 throughputControlMbps 0
scalar RSUScenario.node[18].nic.mac1609_4 receivedFramesLowerMsg 61526
scalar RSUScenario.node[18].nic.mac1609_4 receivedBitsLowerPackets 0
scalar RSUScenario.node[18].nic.mac1609_4 receivedBitsLoserWsm 0
scalar RSUScenario.node[18].nic.mac1609_4 packetsNotForMe 0
scalar RSUScenario.node[18].nic.mac1609_4 receivedTotalBits 54148704
scalar RSUScenario.node[18].nic.mac1609_4 collisionsPktNonDecoded 0
scalar RSUScenario.node[18].nic.mac1609_4 chUtilizationCCH 6.134917
scalar RSUScenario.node[18].nic.mac1609_4 chUtilizationSCH1 0
scalar RSUScenario.node[18].nic.mac1609_4 chUtilizationSCH2 0
scalar RSUScenario.node[18].nic.mac1609_4 chUtilizationSCH3 0.000465
scalar RSUScenario.node[18].nic.mac1609_4 chUtilizationSCH4 0
scalar RSUScenario.node[18].nic.mac1609_4 chUtilizationHPPS 0
scalar RSUScenario.node[18].nic.mac1609_4 chUtilizationCRIT_SOL 0
scalar RSUScenario.node[18].nic.mac1609_4 previousSignalQualityCCH 100
scalar RSUScenario.node[18].nic.mac1609_4 previousSignalQualitySCH1 0
scalar RSUScenario.node[18].nic.mac1609_4 previousSignalQualitySCH2 0
scalar RSUScenario.node[18].nic.mac1609_4 previousSignalQualitySCH3 100
scalar RSUScenario.node[18].nic.mac1609_4 previousSignalQualitySCH4 0
scalar RSUScenario.node[18].nic.mac1609_4 chPacketsCCH 50633
scalar RSUScenario.node[18].nic.mac1609_4 chPacketsSCH1 0
scalar RSUScenario.node[18].nic.mac1609_4 chPacketsSCH2 0
scalar RSUScenario.node[18].nic.mac1609_4 chPacketsSCH3 2
scalar RSUScenario.node[18].nic.mac1609_4 chPacketsSCH4 0
scalar RSUScenario.node[18].nic.mac1609_4 ReceivedUnicastPackets 0
scalar RSUScenario.node[18].nic.mac1609_4 ReceivedBroadcasts 61526
scalar RSUScenario.node[18].nic.mac1609_4 SentPackets 25670
scalar RSUScenario.node[18].nic.mac1609_4 SentAcknowledgements 0
scalar RSUScenario.node[18].nic.mac1609_4 SNIRLostPackets 582783
scalar RSUScenario.node[18].nic.mac1609_4 RXTXLostPackets 97894
scalar RSUScenario.node[18].nic.mac1609_4 TotalLostPackets 680677
scalar RSUScenario.node[18].nic.mac1609_4 DroppedPacketsInMac 58948
scalar RSUScenario.node[18].nic.mac1609_4 TooLittleTime 430
scalar RSUScenario.node[18].nic.mac1609_4 TimesIntoBackoff 42955
scalar RSUScenario.node[18].nic.mac1609_4 SlotsBackoff 62963
scalar RSUScenario.node[18].nic.mac1609_4 NumInternalContention 0
scalar RSUScenario.node[18].nic.mac1609_4 totalBusyTime 37.574566393025
scalar RSUScenario.node[18].nic.mac1609_4 throughputMetricMac:last 307.70663106584
attr source throughputSignalMac
attr title "throughputMetricMac, last"
scalar RSUScenario.node[18].nic.mac1609_4 throughputMetricMac:count 61526
attr source throughputSignalMac
attr title "throughputMetricMac, count"
scalar RSUScenario.node[18].nic.mac1609_4 throughputMetricMac:sum 12063958.126283
attr source throughputSignalMac
attr title "throughputMetricMac, sum"
scalar RSUScenario.node[18].nic.mac1609_4 throughputMetricMac:mean 196.07902555477
attr source throughputSignalMac
attr title "throughputMetricMac, mean"
scalar RSUScenario.node[18].veinsmobility startTime 94000
scalar RSUScenario.node[18].veinsmobility totalTime 106000
scalar RSUScenario.node[18].veinsmobility stopTime 200000
scalar RSUScenario.node[18].veinsmobility minSpeed 0.42773956329504
scalar RSUScenario.node[18].veinsmobility maxSpeed 5.009624306905
scalar RSUScenario.node[18].veinsmobility totalDistance 166.98121524166
scalar RSUScenario.node[18].veinsmobility totalCO2Emission 125.44722950652
scalar RSUScenario.node[19].appl generatedWSMs 1
scalar RSUScenario.node[19].appl receivedWSMs 26
scalar RSUScenario.node[19].appl generatedBSMs 80170
scalar RSUScenario.node[19].appl receivedBSMs 58135
scalar RSUScenario.node[19].appl generatedWSAs 0
scalar RSUScenario.node[19].appl receivedWSAs 0
scalar RSUScenario.node[19].appl beaconInterval 0.1
scalar RSUScenario.node[19].nic.phy80211p busyTime 1.1762160769148
scalar RSUScenario.node[19].nic.phy80211p ncollisions 107410
scalar RSUScenario.node[19].nic.mac1609_4 throughputMetricMac 290.87743990254
scalar RSUScenario.node[19].nic.mac1609_4 throughputMbps 0.25600127436821
scalar RSUScenario.node[19].nic.mac1609_4 throughputControlMbps 0
scalar RSUScenario.node[19].nic.mac1609_4 receivedFramesLowerMsg 58161
scalar RSUScenario.node[19].nic.mac1609_4 receivedBitsLowerPackets 0
scalar RSUScenario.node[19].nic.mac1609_4 receivedBitsLoserWsm 0
scalar RSUScenario.node[19].nic.mac1609_4 packetsNotForMe 0
scalar RSUScenario.node[19].nic.mac1609_4 receivedTotalBits 51187504
scalar RSUScenario.node[19].nic.mac1609_4 collisionsPktNonDecoded 0
scalar RSUScenario.node[19].nic.mac1609_4 chUtilizationCCH 5.95358
scalar RSUScenario.node[19].nic.mac1609_4 chUtilizationSCH1 0
scalar RSUScenario.node[19].nic.mac1609_4 chUtilizationSCH2 0.000233
scalar RSUScenario.node[19].nic.mac1609_4 chUtilizationSCH3 0
scalar RSUScenario.node[19].nic.mac1609_4 chUtilizationSCH4 0
scalar RSUScenario.node[19].nic.mac1609_4 chUtilizationHPPS 0
scalar RSUScenario.node[19].nic.mac1609_4 chUtilizationCRIT_SOL 0
scalar RSUScenario.node[19].nic.mac1609_4 previousSignalQualityCCH 100
scalar RSUScenario.node[19].nic.mac1609_4 previousSignalQualitySCH1 0
scalar RSUScenario.node[19].nic.mac1609_4 previousSignalQualitySCH2 100
scalar RSUScenario.node[19].nic.mac1609_4 previousSignalQualitySCH3 0
scalar RSUScenario.node[19].nic.mac1609_4 previousSignalQualitySCH4 0
scalar RSUScenario.node[19].nic.mac1609_4 chPacketsCCH 48926
scalar RSUScenario.node[19].nic.mac1609_4 chPacketsSCH1 0
scalar RSUScenario.node[19].nic.mac1609_4 chPacketsSCH2 1
scalar RSUScenario.node[19].nic.mac1609_4 chPacketsSCH3 0
scalar RSUScenario.node[19].nic.mac1609_4 chPacketsSCH4 0
scalar RSUScenario.node[19].nic.mac1609_4 ReceivedUnicastPackets 0
scalar RSUScenario.node[19].nic.mac1609_4 ReceivedBroadcasts 58161
scalar RSUScenario.node[19].nic.mac1609_4 SentPackets 24813
scalar RSUScenario.node[19].nic.mac1609_4 SentAcknowledgements 0
scalar RSUScenario.node[19].nic.mac1609_4 SNIRLostPackets 578945
scalar RSUScenario.node[19].nic.mac1609_4 RXTXLostPackets 95175
scalar RSUScenario.node[19].nic.mac1609_4 TotalLostPackets 674120
scalar RSUScenario.node[19].nic.mac1609_4 DroppedPacketsInMac 55357
scalar RSUScenario.node[19].nic.mac1609_4 TooLittleTime 204
scalar RSUScenario.node[19].nic.mac1609_4 TimesIntoBackoff 41332
scalar RSUScenario.node[19].nic.mac1609_4 SlotsBackoff 60866
scalar RSUScenario.node[19].nic.mac1609_4 NumInternalContention 0
scalar RSUScenario.node[19].nic.mac1609_4 totalBusyTime 36.827504480683
scalar RSUScenario.node[19].nic.mac1609_4 throughputMetricMac:last 290.87743990254
attr source throughputSignalMac
attr title "throughputMetricMac, last"
scalar RSUScenario.node[19].nic.mac1609_4 throughputMetricMac:count 58161
attr source throughputSignalMac
attr title "throughputMetricMac, count"
scalar RSUScenario.node[19].nic.mac1609_4 throughputMetricMac:sum 10682629.264246
attr source throughputSignalMac
attr title "throughputMetricMac, sum"
scalar RSUScenario.node[19].nic.mac1609_4 throughputMetricMac:mean 183.67341112164
attr source throughputSignalMac
attr title "throughputMetricMac, mean"
scalar RSUScenario.node[19].veinsmobility startTime 96000
scalar RSUScenario.node[19].veinsmobility totalTime 104000
scalar RSUScenario.node[19].veinsmobility stopTime 200000
scalar RSUScenario.node[19].veinsmobility minSpeed 0.43514961487963
scalar RSUScenario.node[19].veinsmobility maxSpeed 4.6532842827868
scalar RSUScenario.node[19].veinsmobility totalDistance 159.6350757384
scalar RSUScenario.node[19].veinsmobility totalCO2Emission 123.1610892824
scalar RSUScenario.node[20].appl generatedWSMs 3
scalar RSUScenario.node[20].appl receivedWSMs 24
scalar RSUScenario.node[20].appl generatedBSMs 83682
scalar RSUScenario.node[20].appl receivedBSMs 60731
scalar RSUScenario.node[20].appl generatedWSAs 0
scalar RSUScenario.node[20].appl receivedWSAs 0
scalar RSUScenario.node[20].appl beaconInterval 0.1
scalar RSUScenario.node[20].nic.phy80211p busyTime 1.1764962352858
scalar RSUScenario.node[20].nic.phy80211p ncollisions 101139
scalar RSUScenario.node[20].nic.mac1609_4 throughputMetricMac 303.85067071294
scalar RSUScenario.node[20].nic.mac1609_4 throughputMbps 0.2674154769234
scalar RSUScenario.node[20].nic.mac1609_4 throughputControlMbps 0
scalar RSUScenario.node[20].nic.mac1609_4 receivedFramesLowerMsg 60755
scalar RSUScenario.node[20].nic.mac1609_4 receivedBitsLowerPackets 0
scalar RSUScenario.node[20].nic.mac1609_4 receivedBitsLoserWsm 0
scalar RSUScenario.node[20].nic.mac1609_4 packetsNotForMe 0
scalar RSUScenario.node[20].nic.mac1609_4 receivedTotalBits 53469776
scalar RSUScenario.node[20].nic.mac1609_4 collisionsPktNonDecoded 0
scalar RSUScenario.node[20].nic.mac1609_4 chUtilizationCCH 6.114504
scalar RSUScenario.node[20].nic.mac1609_4 chUtilizationSCH1 0
scalar RSUScenario.node[20].nic.mac1609_4 chUtilizationSCH2 0.000465
scalar RSUScenario.node[20].nic.mac1609_4 chUtilizationSCH3 0.00093
scalar RSUScenario.node[20].nic.mac1609_4 chUtilizationSCH4 0
scalar RSUScenario.node[20].nic.mac1609_4 chUtilizationHPPS 0
scalar RSUScenario.node[20].nic.mac1609_4 chUtilizationCRIT_SOL 0
scalar RSUScenario.node[20].nic.mac1609_4 previousSignalQualityCCH 100
scalar RSUScenario.node[20].nic.mac1609_4 previousSignalQualitySCH1 0
scalar RSUScenario.node[20].nic.mac1609_4 previousSignalQualitySCH2 100
scalar RSUScenario.node[20].nic.mac1609_4 previousSignalQualitySCH3 100
scalar RSUScenario.node[20].nic.mac1609_4 previousSignalQualitySCH4 0
scalar RSUScenario.node[20].nic.mac1609_4 chPacketsCCH 49748
scalar RSUScenario.node[20].nic.mac1609_4 chPacketsSCH1 0
scalar RSUScenario.node[20].nic.mac1609_4 chPacketsSCH2 2
scalar RSUScenario.node[20].nic.mac1609_4 chPacketsSCH3 4
scalar RSUScenario.node[20].nic.mac1609_4 chPacketsSCH4 0
scalar RSUScenario.node[20].nic.mac1609_4 ReceivedUnicastPackets 0
scalar RSUScenario.node[20].nic.mac1609_4 ReceivedBroadcasts 60755
scalar RSUScenario.node[20].nic.mac1609_4 SentPackets 25227
scalar RSUScenario.node[20].nic.mac1609_4 SentAcknowledgements 0
scalar RSUScenario.node[20].nic.mac1609_4 SNIRLostPackets 564247
scalar RSUScenario.node[20].nic.mac1609_4 RXTXLostPackets 96721
scalar RSUScenario.node[20].nic.mac1609_4 TotalLostPackets 660968
scalar RSUScenario.node[20].nic.mac1609_4 DroppedPacketsInMac 58457
scalar RSUScenario.node[20].nic.mac1609_4 TooLittleTime 792
scalar RSUScenario.node[20].nic.mac1609_4 TimesIntoBackoff 41719
scalar RSUScenario.node[20].nic.mac1609_4 SlotsBackoff 61419
scalar RSUScenario.node[20].nic.mac1609_4 NumInternalContention 0
scalar RSUScenario.node[20].nic.mac1609_4 totalBusyTime 36.248872137011
scalar RSUScenario.node[20].nic.mac1609_4 throughputMetricMac:last 303.85067071294
attr source throughputSignalMac
attr title "throughputMetricMac, last"
scalar RSUScenario.node[20].nic.mac1609_4 throughputMetricMac:count 60755
attr source throughputSignalMac
attr title "throughputMetricMac, count"
scalar RSUScenario.node[20].nic.mac1609_4 throughputMetricMac:sum 11721363.378077
attr source throughputSignalMac
attr title "throughputMetricMac, sum"
scalar RSUScenario.node[20].nic.mac1609_4 throughputMetricMac:mean 192.92837425853
attr source throughputSignalMac
attr title "throughputMetricMac, mean"
scalar RSUScenario.node[20].veinsmobility startTime 98000
scalar RSUScenario.node[20].veinsmobility totalTime 102000
scalar RSUScenario.node[20].veinsmobility stopTime 200000
scalar RSUScenario.node[20].veinsmobility minSpeed 0
scalar RSUScenario.node[20].veinsmobility maxSpeed 9.8554973309629
scalar RSUScenario.node[20].veinsmobility totalDistance 152.42363900794
scalar RSUScenario.node[20].veinsmobility totalCO2Emission 128.61992606896
scalar RSUScenario.node[21].appl generatedWSMs 3
scalar RSUScenario.node[21].appl receivedWSMs 24
scalar RSUScenario.node[21].appl generatedBSMs 84133
scalar RSUScenario.node[21].appl receivedBSMs 60962
scalar RSUScenario.node[21].appl generatedWSAs 0
scalar RSUScenario.node[21].appl receivedWSAs 0
scalar RSUScenario.node[21].appl beaconInterval 0.1
scalar RSUScenario.node[21].nic.phy80211p busyTime 1.1827541818099
scalar RSUScenario.node[21].nic.phy80211p ncollisions 95113
scalar RSUScenario.node[21].nic.mac1609_4 throughputMetricMac 305.00595839093
scalar RSUScenario.node[21].nic.mac1609_4 throughputMbps 0.26843213008003
scalar RSUScenario.node[21].nic.mac1609_4 throughputControlMbps 0
scalar RSUScenario.node[21].nic.mac1609_4 receivedFramesLowerMsg 60986
scalar RSUScenario.node[21].nic.mac1609_4 receivedBitsLowerPackets 0
scalar RSUScenario.node[21].nic.mac1609_4 receivedBitsLoserWsm 0
scalar RSUScenario.node[21].nic.mac1609_4 packetsNotForMe 0
scalar RSUScenario.node[21].nic.mac1609_4 receivedTotalBits 53673056
scalar RSUScenario.node[21].nic.mac1609_4 collisionsPktNonDecoded 0
scalar RSUScenario.node[21].nic.mac1609_4 chUtilizationCCH 6.049503
scalar RSUScenario.node[21].nic.mac1609_4 chUtilizationSCH1 0
scalar RSUScenario.node[21].nic.mac1609_4 chUtilizationSCH2 0.000465
scalar RSUScenario.node[21].nic.mac1609_4 chUtilizationSCH3 0.00093
scalar RSUScenario.node[21].nic.mac1609_4 chUtilizationSCH4 0
scalar RSUScenario.node[21].nic.mac1609_4 chUtilizationHPPS 0
scalar RSUScenario.node[21].nic.mac1609_4 chUtilizationCRIT_SOL 0
scalar RSUScenario.node[21].nic.mac1609_4 previousSignalQualityCCH 100
scalar RSUScenario.node[21].nic.mac1609_4 previousSignalQualitySCH1 0
scalar RSUScenario.node[21].nic.mac1609_4 previousSignalQualitySCH2 100
scalar RSUScenario.node[21].nic.mac1609_4 previousSignalQualitySCH3 100
scalar RSUScenario.node[21].nic.mac1609_4 previousSignalQualitySCH4 0
scalar RSUScenario.node[21].nic.mac1609_4 chPacketsCCH 49579
scalar RSUScenario.node[21].nic.mac1609_4 chPacketsSCH1 0
scalar RSUScenario.node[21].nic.mac1609_4 chPacketsSCH2 2
scalar RSUScenario.node[21].nic.mac1609_4 chPacketsSCH3 4
scalar RSUScenario.node[21].nic.mac1609_4 chPacketsSCH4 0
scalar RSUScenario.node[21].nic.mac1609_4 ReceivedUnicastPackets 0
scalar RSUScenario.node[21].nic.mac1609_4 ReceivedBroadcasts 60986
scalar RSUScenario.node[21].nic.mac1609_4 SentPackets 25122
scalar RSUScenario.node[21].nic.mac1609_4 SentAcknowledgements 0
scalar RSUScenario.node[21].nic.mac1609_4 SNIRLostPackets 548861
scalar RSUScenario.node[21].nic.mac1609_4 RXTXLostPackets 94971
scalar RSUScenario.node[21].nic.mac1609_4 TotalLostPackets 643832
scalar RSUScenario.node[21].nic.mac1609_4 DroppedPacketsInMac 59013
scalar RSUScenario.node[21].nic.mac1609_4 TooLittleTime 183
scalar RSUScenario.node[21].nic.mac1609_4 TimesIntoBackoff 41527
scalar RSUScenario.node[21].nic.mac1609_4 SlotsBackoff 61127
scalar RSUScenario.node[21].nic.mac1609_4 NumInternalContention 0
scalar RSUScenario.node[21].nic.mac1609_4 totalBusyTime 35.039326655829
scalar RSUScenario.node[21].nic.mac1609_4 throughputMetricMac:last 305.00595839093
attr source throughputSignalMac
attr title "throughputMetricMac, last"
scalar RSUScenario.node[21].nic.mac1609_4 throughputMetricMac:count 60986
attr source throughputSignalMac
attr title "throughputMetricMac, count"
scalar RSUScenario.node[21].nic.mac1609_4 throughputMetricMac:sum 11756474.512226
attr source throughputSignalMac
attr title "throughputMetricMac, sum"
scalar RSUScenario.node[21].nic.mac1609_4 throughputMetricMac:mean 192.7733334245
attr source throughputSignalMac
attr title "throughputMetricMac, mean"
scalar RSUScenario.node[21].veinsmobility startTime 101000
scalar RSUScenario.node[21].veinsmobility totalTime 99000
scalar RSUScenario.node[21].veinsmobility stopTime 200000
scalar RSUScenario.node[21].veinsmobility minSpeed 0
scalar RSUScenario.node[21].veinsmobility maxSpeed 8.5447925259565
scalar RSUScenario.node[21].veinsmobility totalDistance 144.34916147203
scalar RSUScenario.node[21].veinsmobility totalCO2Emission 118.86766946719
scalar RSUScenario.node[22].appl generatedWSMs 1
scalar RSUScenario.node[22].appl receivedWSMs 26
scalar RSUScenario.node[22].appl generatedBSMs 83556
scalar RSUScenario.node[22].appl receivedBSMs 60595
scalar RSUScenario.node[22].appl generatedWSAs 0
scalar RSUScenario.node[22].appl receivedWSAs 0
scalar RSUScenario.node[22].appl beaconInterval 0.1
scalar RSUScenario.node[22].nic.phy80211p busyTime 1.1856614432907
scalar RSUScenario.node[22].nic.phy80211p ncollisions 92827
scalar RSUScenario.node[22].nic.mac1609_4 throughputMetricMac 303.18050374637
scalar RSUScenario.node[22].nic.mac1609_4 throughputMbps 0.26682797055081
scalar RSUScenario.node[22].nic.mac1609_4 throughputControlMbps 0
scalar RSUScenario.node[22].nic.mac1609_4 receivedFramesLowerMsg 60621
scalar RSUScenario.node[22].nic.mac1609_4 receivedBitsLowerPackets 0
scalar RSUScenario.node[22].nic.mac1609_4 receivedBitsLoserWsm 0
scalar RSUScenario.node[22].nic.mac1609_4 packetsNotForMe 0
scalar RSUScenario.node[22].nic.mac1609_4 receivedTotalBits 53352304
scalar RSUScenario.node[22].nic.mac1609_4 collisionsPktNonDecoded 0
scalar RSUScenario.node[22].nic.mac1609_4 chUtilizationCCH 5.912202
scalar RSUScenario.node[22].nic.mac1609_4 chUtilizationSCH1 0
scalar RSUScenario.node[22].nic.mac1609_4 chUtilizationSCH2 0
scalar RSUScenario.node[22].nic.mac1609_4 chUtilizationSCH3 0.000465
scalar RSUScenario.node[22].nic.mac1609_4 chUtilizationSCH4 0
scalar RSUScenario.node[22].nic.mac1609_4 chUtilizationHPPS 0
scalar RSUScenario.node[22].nic.mac1609_4 chUtilizationCRIT_SOL 0
scalar RSUScenario.node[22].nic.mac1609_4 previousSignalQualityCCH 100
scalar RSUScenario.node[22].nic.mac1609_4 previousSignalQualitySCH1 0
scalar RSUScenario.node[22].nic.mac1609_4 previousSignalQualitySCH2 0
scalar RSUScenario.node[22].nic.mac1609_4 previousSignalQualitySCH3 100
scalar RSUScenario.node[22].nic.mac1609_4 previousSignalQualitySCH4 0
scalar RSUScenario.node[22].nic.mac1609_4 chPacketsCCH 48400
scalar RSUScenario.node[22].nic.mac1609_4 chPacketsSCH1 0
scalar RSUScenario.node[22].nic.mac1609_4 chPacketsSCH2 0
scalar RSUScenario.node[22].nic.mac1609_4 chPacketsSCH3 2
scalar RSUScenario.node[22].nic.mac1609_4 chPacketsSCH4 0
scalar RSUScenario.node[22].nic.mac1609_4 ReceivedUnicastPackets 0
scalar RSUScenario.node[22].nic.mac1609_4 ReceivedBroadcasts 60621
scalar RSUScenario.node[22].nic.mac1609_4 SentPackets 24523
scalar RSUScenario.node[22].nic.mac1609_4 SentAcknowledgements 0
scalar RSUScenario.node[22].nic.mac1609_4 SNIRLostPackets 538371
scalar RSUScenario.node[22].nic.mac1609_4 RXTXLostPackets 95765
scalar RSUScenario.node[22].nic.mac1609_4 TotalLostPackets 634136
scalar RSUScenario.node[22].nic.mac1609_4 DroppedPacketsInMac 59033
scalar RSUScenario.node[22].nic.mac1609_4 TooLittleTime 429
scalar RSUScenario.node[22].nic.mac1609_4 TimesIntoBackoff 40553
scalar RSUScenario.node[22].nic.mac1609_4 SlotsBackoff 59924
scalar RSUScenario.node[22].nic.mac1609_4 NumInternalContention 0
scalar RSUScenario.node[22].nic.mac1609_4 totalBusyTime 34.396874910556
scalar RSUScenario.node[22].nic.mac1609_4 throughputMetricMac:last 303.18050374637
attr source throughputSignalMac
attr title "throughputMetricMac, last"
scalar RSUScenario.node[22].nic.mac1609_4 throughputMetricMac:count 60621
attr source throughputSignalMac
attr title "throughputMetricMac, count"
scalar RSUScenario.node[22].nic.mac1609_4 throughputMetricMac:sum 11516123.291653
attr source throughputSignalMac
attr title "throughputMetricMac, sum"
scalar RSUScenario.node[22].nic.mac1609_4 throughputMetricMac:mean 189.96920690278
attr source throughputSignalMac
attr title "throughputMetricMac, mean"
scalar RSUScenario.node[22].veinsmobility startTime 103000
scalar RSUScenario.node[22].veinsmobility totalTime 97000
scalar RSUScenario.node[22].veinsmobility stopTime 200000
scalar RSUScenario.node[22].veinsmobility minSpeed 0
scalar RSUScenario.node[22].veinsmobility maxSpeed 7.6265488707437
scalar RSUScenario.node[22].veinsmobility totalDistance 137.68261085865
scalar RSUScenario.node[22].veinsmobility totalCO2Emission 115.25284542644
scalar RSUScenario.node[23].appl generatedWSMs 1
scalar RSUScenario.node[23].appl receivedWSMs 26
scalar RSUScenario.node[23].appl generatedBSMs 82331
scalar RSUScenario.node[23].appl receivedBSMs 59710
scalar RSUScenario.node[23].appl generatedWSAs 0
scalar RSUScenario.node[23].appl receivedWSAs 0
scalar RSUScenario.node[23].appl beaconInterval 0.1
scalar RSUScenario.node[23].nic.phy80211p busyTime 1.1912436595662
scalar RSUScenario.node[23].nic.phy80211p ncollisions 88787
scalar RSUScenario.node[23].nic.mac1609_4 throughputMetricMac 298.75440143236
scalar RSUScenario.node[23].nic.mac1609_4 throughputMbps 0.26293300051446
scalar RSUScenario.node[23].nic.mac1609_4 throughputControlMbps 0
scalar RSUScenario.node[23].nic.mac1609_4 receivedFramesLowerMsg 59736
scalar RSUScenario.node[23].nic.mac1609_4 receivedBitsLowerPackets 0
scalar RSUScenario.node[23].nic.mac1609_4 receivedBitsLoserWsm 0
scalar RSUScenario.node[23].nic.mac1609_4 packetsNotForMe 0
scalar RSUScenario.node[23].nic.mac1609_4 receivedTotalBits 52573504
scalar RSUScenario.node[23].nic.mac1609_4 collisionsPktNonDecoded 0
scalar RSUScenario.node[23].nic.mac1609_4 chUtilizationCCH 5.802966
scalar RSUScenario.node[23].nic.mac1609_4 chUtilizationSCH1 0
scalar RSUScenario.node[23].nic.mac1609_4 chUtilizationSCH2 0
scalar RSUScenario.node[23].nic.mac1609_4 chUtilizationSCH3 0.000465
scalar RSUScenario.node[23].nic.mac1609_4 chUtilizationSCH4 0
scalar RSUScenario.node[23].nic.mac1609_4 chUtilizationHPPS 0
scalar RSUScenario.node[23].nic.mac1609_4 chUtilizationCRIT_SOL 0
scalar RSUScenario.node[23].nic.mac1609_4 previousSignalQualityCCH 100
scalar RSUScenario.node[23].nic.mac1609_4 previousSignalQualitySCH1 0
scalar RSUScenario.node[23].nic.mac1609_4 previousSignalQualitySCH2 0
scalar RSUScenario.node[23].nic.mac1609_4 previousSignalQualitySCH3 100
scalar RSUScenario.node[23].nic.mac1609_4 previousSignalQualitySCH4 0
scalar RSUScenario.node[23].nic.mac1609_4 chPacketsCCH 47356
scalar RSUScenario.node[23].nic.mac1609_4 chPacketsSCH1 0
scalar RSUScenario.node[23].nic.mac1609_4 chPacketsSCH2 0
scalar RSUScenario.node[23].nic.mac1609_4 chPacketsSCH3 2
scalar RSUScenario.node[23].nic.mac1609_4 chPacketsSCH4 0
scalar RSUScenario.node[23].nic.mac1609_4 ReceivedUnicastPackets 0
scalar RSUScenario.node[23].nic.mac1609_4 ReceivedBroadcasts 59736
scalar RSUScenario.node[23].nic.mac1609_4 SentPackets 23959
scalar RSUScenario.node[23].nic.mac1609_4 SentAcknowledgements 0
scalar RSUScenario.node[23].nic.mac1609_4 SNIRLostPackets 523467
scalar RSUScenario.node[23].nic.mac1609_4 RXTXLostPackets 94166
scalar RSUScenario.node[23].nic.mac1609_4 TotalLostPackets 617633
scalar RSUScenario.node[23].nic.mac1609_4 DroppedPacketsInMac 58372
scalar RSUScenario.node[23].nic.mac1609_4 TooLittleTime 608
scalar RSUScenario.node[23].nic.mac1609_4 TimesIntoBackoff 39607
scalar RSUScenario.node[23].nic.mac1609_4 SlotsBackoff 58485
scalar RSUScenario.node[23].nic.mac1609_4 NumInternalContention 0
scalar RSUScenario.node[23].nic.mac1609_4 totalBusyTime 33.341109313855
scalar RSUScenario.node[23].nic.mac1609_4 throughputMetricMac:last 298.75440143236
attr source throughputSignalMac
attr title "throughputMetricMac, last"
scalar RSUScenario.node[23].nic.mac1609_4 throughputMetricMac:count 59736
attr source throughputSignalMac
attr title "throughputMetricMac, count"
scalar RSUScenario.node[23].nic.mac1609_4 throughputMetricMac:sum 11086051.713017
attr source throughputSignalMac
attr title "throughputMetricMac, sum"
scalar RSUScenario.node[23].nic.mac1609_4 throughputMetricMac:mean 185.58409858405
attr source throughputSignalMac
attr title "throughputMetricMac, mean"
scalar RSUScenario.node[23].veinsmobility startTime 106000
scalar RSUScenario.node[23].veinsmobility totalTime 94000
scalar RSUScenario.node[23].veinsmobility stopTime 200000
scalar RSUScenario.node[23].veinsmobility minSpeed 0
scalar RSUScenario.node[23].veinsmobility maxSpeed 6.7403223326175
scalar RSUScenario.node[23].veinsmobility totalDistance 129.28623039961
scalar RSUScenario.node[23].veinsmobility totalCO2Emission 109.57458477886
scalar RSUScenario.node[6].appl generatedWSMs 1
scalar RSUScenario.node[6].appl receivedWSMs 47
scalar RSUScenario.node[6].appl generatedBSMs 189233
scalar RSUScenario.node[6].appl receivedBSMs 141302
scalar RSUScenario.node[6].appl generatedWSAs 0
scalar RSUScenario.node[6].appl receivedWSAs 0
scalar RSUScenario.node[6].appl beaconInterval 0.1
scalar RSUScenario.node[6].nic.phy80211p busyTime 0.9099706516787
scalar RSUScenario.node[6].nic.phy80211p ncollisions 131274
scalar RSUScenario.node[6].nic.mac1609_4 throughputMetricMac 706.92104999444
scalar RSUScenario.node[6].nic.mac1609_4 throughputMbps 0.62214317710635
scalar RSUScenario.node[6].nic.mac1609_4 throughputControlMbps 0
scalar RSUScenario.node[6].nic.mac1609_4 receivedFramesLowerMsg 141349
scalar RSUScenario.node[6].nic.mac1609_4 receivedBitsLowerPackets 0
scalar RSUScenario.node[6].nic.mac1609_4 receivedBitsLoserWsm 0
scalar RSUScenario.node[6].nic.mac1609_4 packetsNotForMe 0
scalar RSUScenario.node[6].nic.mac1609_4 receivedTotalBits 124397648
scalar RSUScenario.node[6].nic.mac1609_4 collisionsPktNonDecoded 0
scalar RSUScenario.node[6].nic.mac1609_4 chUtilizationCCH 12.749932
scalar RSUScenario.node[6].nic.mac1609_4 chUtilizationSCH1 0
scalar RSUScenario.node[6].nic.mac1609_4 chUtilizationSCH2 0
scalar RSUScenario.node[6].nic.mac1609_4 chUtilizationSCH3 0.000233
scalar RSUScenario.node[6].nic.mac1609_4 chUtilizationSCH4 0
scalar RSUScenario.node[6].nic.mac1609_4 chUtilizationHPPS 0
scalar RSUScenario.node[6].nic.mac1609_4 chUtilizationCRIT_SOL 0
scalar RSUScenario.node[6].nic.mac1609_4 previousSignalQualityCCH 100
scalar RSUScenario.node[6].nic.mac1609_4 previousSignalQualitySCH1 0
scalar RSUScenario.node[6].nic.mac1609_4 previousSignalQualitySCH2 0
scalar RSUScenario.node[6].nic.mac1609_4 previousSignalQualitySCH3 100
scalar RSUScenario.node[6].nic.mac1609_4 previousSignalQualitySCH4 0
scalar RSUScenario.node[6].nic.mac1609_4 chPacketsCCH 103284
scalar RSUScenario.node[6].nic.mac1609_4 chPacketsSCH1 0
scalar RSUScenario.node[6].nic.mac1609_4 chPacketsSCH2 0
scalar RSUScenario.node[6].nic.mac1609_4 chPacketsSCH3 1
scalar RSUScenario.node[6].nic.mac1609_4 chPacketsSCH4 0
scalar RSUScenario.node[6].nic.mac1609_4 ReceivedUnicastPackets 0
scalar RSUScenario.node[6].nic.mac1609_4 ReceivedBroadcasts 141349
scalar RSUScenario.node[6].nic.mac1609_4 SentPackets 52205
scalar RSUScenario.node[6].nic.mac1609_4 SentAcknowledgements 0
scalar RSUScenario.node[6].nic.mac1609_4 SNIRLostPackets 702198
scalar RSUScenario.node[6].nic.mac1609_4 RXTXLostPackets 147365
scalar RSUScenario.node[6].nic.mac1609_4 TotalLostPackets 849563
scalar RSUScenario.node[6].nic.mac1609_4 DroppedPacketsInMac 137028
scalar RSUScenario.node[6].nic.mac1609_4 TooLittleTime 1385
scalar RSUScenario.node[6].nic.mac1609_4 TimesIntoBackoff 85187
scalar RSUScenario.node[6].nic.mac1609_4 SlotsBackoff 126248
scalar RSUScenario.node[6].nic.mac1609_4 NumInternalContention 0
scalar RSUScenario.node[6].nic.mac1609_4 totalBusyTime 62.937131411161
scalar RSUScenario.node[6].nic.mac1609_4 throughputMetricMac:last 706.92104999444
attr source throughputSignalMac
attr title "throughputMetricMac, last"
scalar RSUScenario.node[6].nic.mac1609_4 throughputMetricMac:count 141349
attr source throughputSignalMac
attr title "throughputMetricMac, count"
scalar RSUScenario.node[6].nic.mac1609_4 throughputMetricMac:sum 91136368.246643
attr source throughputSignalMac
attr title "throughputMetricMac, sum"
scalar RSUScenario.node[6].nic.mac1609_4 throughputMetricMac:mean 644.76132301356
attr source throughputSignalMac
attr title "throughputMetricMac, mean"
scalar RSUScenario.node[6].veinsmobility startTime 22000
scalar RSUScenario.node[6].veinsmobility totalTime 178000
scalar RSUScenario.node[6].veinsmobility stopTime 200000
scalar RSUScenario.node[6].veinsmobility minSpeed 0.98094131815177
scalar RSUScenario.node[6].veinsmobility maxSpeed 13.793682518269
scalar RSUScenario.node[6].veinsmobility totalDistance 337.56467839437
scalar RSUScenario.node[6].veinsmobility totalCO2Emission 239.94738452086
scalar RSUScenario.node[24].appl generatedWSMs 1
scalar RSUScenario.node[24].appl receivedWSMs 26
scalar RSUScenario.node[24].appl generatedBSMs 79471
scalar RSUScenario.node[24].appl receivedBSMs 57534
scalar RSUScenario.node[24].appl generatedWSAs 0
scalar RSUScenario.node[24].appl receivedWSAs 0
scalar RSUScenario.node[24].appl beaconInterval 0.1
scalar RSUScenario.node[24].nic.phy80211p busyTime 1.198046329662
scalar RSUScenario.node[24].nic.phy80211p ncollisions 86203
scalar RSUScenario.node[24].nic.mac1609_4 throughputMetricMac 287.87169119213
scalar RSUScenario.node[24].nic.mac1609_4 throughputMbps 0.25335621550303
scalar RSUScenario.node[24].nic.mac1609_4 throughputControlMbps 0
scalar RSUScenario.node[24].nic.mac1609_4 receivedFramesLowerMsg 57560
scalar RSUScenario.node[24].nic.mac1609_4 receivedBitsLowerPackets 0
scalar RSUScenario.node[24].nic.mac1609_4 receivedBitsLoserWsm 0
scalar RSUScenario.node[24].nic.mac1609_4 packetsNotForMe 0
scalar RSUScenario.node[24].nic.mac1609_4 receivedTotalBits 50658624
scalar RSUScenario.node[24].nic.mac1609_4 collisionsPktNonDecoded 0
scalar RSUScenario.node[24].nic.mac1609_4 chUtilizationCCH 5.615416
scalar RSUScenario.node[24].nic.mac1609_4 chUtilizationSCH1 0
scalar RSUScenario.node[24].nic.mac1609_4 chUtilizationSCH2 0.000233
scalar RSUScenario.node[24].nic.mac1609_4 chUtilizationSCH3 0
scalar RSUScenario.node[24].nic.mac1609_4 chUtilizationSCH4 0
scalar RSUScenario.node[24].nic.mac1609_4 chUtilizationHPPS 0
scalar RSUScenario.node[24].nic.mac1609_4 chUtilizationCRIT_SOL 0
scalar RSUScenario.node[24].nic.mac1609_4 previousSignalQualityCCH 100
scalar RSUScenario.node[24].nic.mac1609_4 previousSignalQualitySCH1 0
scalar RSUScenario.node[24].nic.mac1609_4 previousSignalQualitySCH2 100
scalar RSUScenario.node[24].nic.mac1609_4 previousSignalQualitySCH3 0
scalar RSUScenario.node[24].nic.mac1609_4 previousSignalQualitySCH4 0
scalar RSUScenario.node[24].nic.mac1609_4 chPacketsCCH 45859
scalar RSUScenario.node[24].nic.mac1609_4 chPacketsSCH1 0
scalar RSUScenario.node[24].nic.mac1609_4 chPacketsSCH2 1
scalar RSUScenario.node[24].nic.mac1609_4 chPacketsSCH3 0
scalar RSUScenario.node[24].nic.mac1609_4 chPacketsSCH4 0
scalar RSUScenario.node[24].nic.mac1609_4 ReceivedUnicastPackets 0
scalar RSUScenario.node[24].nic.mac1609_4 ReceivedBroadcasts 57560
scalar RSUScenario.node[24].nic.mac1609_4 SentPackets 23225
scalar RSUScenario.node[24].nic.mac1609_4 SentAcknowledgements 0
scalar RSUScenario.node[24].nic.mac1609_4 SNIRLostPackets 510253
scalar RSUScenario.node[24].nic.mac1609_4 RXTXLostPackets 91827
scalar RSUScenario.node[24].nic.mac1609_4 TotalLostPackets 602080
scalar RSUScenario.node[24].nic.mac1609_4 DroppedPacketsInMac 56246
scalar RSUScenario.node[24].nic.mac1609_4 TooLittleTime 420
scalar RSUScenario.node[24].nic.mac1609_4 TimesIntoBackoff 38321
scalar RSUScenario.node[24].nic.mac1609_4 SlotsBackoff 56862
scalar RSUScenario.node[24].nic.mac1609_4 NumInternalContention 0
scalar RSUScenario.node[24].nic.mac1609_4 totalBusyTime 32.261846295298
scalar RSUScenario.node[24].nic.mac1609_4 throughputMetricMac:last 287.87169119213
attr source throughputSignalMac
attr title "throughputMetricMac, last"
scalar RSUScenario.node[24].nic.mac1609_4 throughputMetricMac:count 57560
attr source throughputSignalMac
attr title "throughputMetricMac, count"
scalar RSUScenario.node[24].nic.mac1609_4 throughputMetricMac:sum 10184837.361064
attr source throughputSignalMac
attr title "throughputMetricMac, sum"
scalar RSUScenario.node[24].nic.mac1609_4 throughputMetricMac:mean 176.94297013663
attr source throughputSignalMac
attr title "throughputMetricMac, mean"
scalar RSUScenario.node[24].veinsmobility startTime 109000
scalar RSUScenario.node[24].veinsmobility totalTime 91000
scalar RSUScenario.node[24].veinsmobility stopTime 200000
scalar RSUScenario.node[24].veinsmobility minSpeed 0
scalar RSUScenario.node[24].veinsmobility maxSpeed 5.9430106001603
scalar RSUScenario.node[24].veinsmobility totalDistance 121.39510846041
scalar RSUScenario.node[24].veinsmobility totalCO2Emission 104.83172222377
scalar RSUScenario.node[25].appl generatedWSMs 1
scalar RSUScenario.node[25].appl receivedWSMs 12
scalar RSUScenario.node[25].appl generatedBSMs 47314
scalar RSUScenario.node[25].appl receivedBSMs 34087
scalar RSUScenario.node[25].appl generatedWSAs 0
scalar RSUScenario.node[25].appl receivedWSAs 0
scalar RSUScenario.node[25].appl beaconInterval 0.1
scalar RSUScenario.node[25].nic.phy80211p busyTime 1.3056406666583
scalar RSUScenario.node[25].nic.phy80211p ncollisions 61764
scalar RSUScenario.node[25].nic.mac1609_4 throughputMetricMac 170.53747042104
scalar RSUScenario.node[25].nic.mac1609_4 throughputMbps 0.15008641731835
scalar RSUScenario.node[25].nic.mac1609_4 throughputControlMbps 0
scalar RSUScenario.node[25].nic.mac1609_4 receivedFramesLowerMsg 34099
scalar RSUScenario.node[25].nic.mac1609_4 receivedBitsLowerPackets 0
scalar RSUScenario.node[25].nic.mac1609_4 receivedBitsLoserWsm 0
scalar RSUScenario.node[25].nic.mac1609_4 packetsNotForMe 0
scalar RSUScenario.node[25].nic.mac1609_4 receivedTotalBits 30009808
scalar RSUScenario.node[25].nic.mac1609_4 collisionsPktNonDecoded 0
scalar RSUScenario.node[25].nic.mac1609_4 chUtilizationCCH 3.431729
scalar RSUScenario.node[25].nic.mac1609_4 chUtilizationSCH1 0
scalar RSUScenario.node[25].nic.mac1609_4 chUtilizationSCH2 0
scalar RSUScenario.node[25].nic.mac1609_4 chUtilizationSCH3 0.000465
scalar RSUScenario.node[25].nic.mac1609_4 chUtilizationSCH4 0
scalar RSUScenario.node[25].nic.mac1609_4 chUtilizationHPPS 0
scalar RSUScenario.node[25].nic.mac1609_4 chUtilizationCRIT_SOL 0
scalar RSUScenario.node[25].nic.mac1609_4 previousSignalQualityCCH 100
scalar RSUScenario.node[25].nic.mac1609_4 previousSignalQualitySCH1 0
scalar RSUScenario.node[25].nic.mac1609_4 previousSignalQualitySCH2 0
scalar RSUScenario.node[25].nic.mac1609_4 previousSignalQualitySCH3 100
scalar RSUScenario.node[25].nic.mac1609_4 previousSignalQualitySCH4 0
scalar RSUScenario.node[25].nic.mac1609_4 chPacketsCCH 28199
scalar RSUScenario.node[25].nic.mac1609_4 chPacketsSCH1 0
scalar RSUScenario.node[25].nic.mac1609_4 chPacketsSCH2 0
scalar RSUScenario.node[25].nic.mac1609_4 chPacketsSCH3 2
scalar RSUScenario.node[25].nic.mac1609_4 chPacketsSCH4 0
scalar RSUScenario.node[25].nic.mac1609_4 ReceivedUnicastPackets 0
scalar RSUScenario.node[25].nic.mac1609_4 ReceivedBroadcasts 34099
scalar RSUScenario.node[25].nic.mac1609_4 SentPackets 14322
scalar RSUScenario.node[25].nic.mac1609_4 SentAcknowledgements 0
scalar RSUScenario.node[25].nic.mac1609_4 SNIRLostPackets 373910
scalar RSUScenario.node[25].nic.mac1609_4 RXTXLostPackets 61176
scalar RSUScenario.node[25].nic.mac1609_4 TotalLostPackets 435086
scalar RSUScenario.node[25].nic.mac1609_4 DroppedPacketsInMac 32992
scalar RSUScenario.node[25].nic.mac1609_4 TooLittleTime 356
scalar RSUScenario.node[25].nic.mac1609_4 TimesIntoBackoff 23978
scalar RSUScenario.node[25].nic.mac1609_4 SlotsBackoff 35047
scalar RSUScenario.node[25].nic.mac1609_4 NumInternalContention 0
scalar RSUScenario.node[25].nic.mac1609_4 totalBusyTime 21.34036897081
scalar RSUScenario.node[25].nic.mac1609_4 throughputMetricMac:last 170.53747042104
attr source throughputSignalMac
attr title "throughputMetricMac, last"
scalar RSUScenario.node[25].nic.mac1609_4 throughputMetricMac:count 34099
attr source throughputSignalMac
attr title "throughputMetricMac, count"
scalar RSUScenario.node[25].nic.mac1609_4 throughputMetricMac:sum 3262971.6378874
attr source throughputSignalMac
attr title "throughputMetricMac, sum"
scalar RSUScenario.node[25].nic.mac1609_4 throughputMetricMac:mean 95.691124017931
attr source throughputSignalMac
attr title "throughputMetricMac, mean"
scalar RSUScenario.node[25].veinsmobility startTime 140000
scalar RSUScenario.node[25].veinsmobility totalTime 60000
scalar RSUScenario.node[25].veinsmobility stopTime 200000
scalar RSUScenario.node[25].veinsmobility minSpeed 0.68042719191989
scalar RSUScenario.node[25].veinsmobility maxSpeed 5.4218828293063
scalar RSUScenario.node[25].veinsmobility totalDistance 114.01584884393
scalar RSUScenario.node[25].veinsmobility totalCO2Emission 72.107433417441
scalar RSUScenario.node[26].appl generatedWSMs 1
scalar RSUScenario.node[26].appl receivedWSMs 12
scalar RSUScenario.node[26].appl generatedBSMs 44109
scalar RSUScenario.node[26].appl receivedBSMs 31874
scalar RSUScenario.node[26].appl generatedWSAs 0
scalar RSUScenario.node[26].appl receivedWSAs 0
scalar RSUScenario.node[26].appl beaconInterval 0.1
scalar RSUScenario.node[26].nic.phy80211p busyTime 1.3150366315707
scalar RSUScenario.node[26].nic.phy80211p ncollisions 59145
scalar RSUScenario.node[26].nic.mac1609_4 throughputMetricMac 159.46971411882
scalar RSUScenario.node[26].nic.mac1609_4 throughputMbps 0.14034679177241
scalar RSUScenario.node[26].nic.mac1609_4 throughputControlMbps 0
scalar RSUScenario.node[26].nic.mac1609_4 receivedFramesLowerMsg 31886
scalar RSUScenario.node[26].nic.mac1609_4 receivedBitsLowerPackets 0
scalar RSUScenario.node[26].nic.mac1609_4 receivedBitsLoserWsm 0
scalar RSUScenario.node[26].nic.mac1609_4 packetsNotForMe 0
scalar RSUScenario.node[26].nic.mac1609_4 receivedTotalBits 28062368
scalar RSUScenario.node[26].nic.mac1609_4 collisionsPktNonDecoded 0
scalar RSUScenario.node[26].nic.mac1609_4 chUtilizationCCH 3.26402
scalar RSUScenario.node[26].nic.mac1609_4 chUtilizationSCH1 0.000233
scalar RSUScenario.node[26].nic.mac1609_4 chUtilizationSCH2 0
scalar RSUScenario.node[26].nic.mac1609_4 chUtilizationSCH3 0
scalar RSUScenario.node[26].nic.mac1609_4 chUtilizationSCH4 0
scalar RSUScenario.node[26].nic.mac1609_4 chUtilizationHPPS 0
scalar RSUScenario.node[26].nic.mac1609_4 chUtilizationCRIT_SOL 0
scalar RSUScenario.node[26].nic.mac1609_4 previousSignalQualityCCH 100
scalar RSUScenario.node[26].nic.mac1609_4 previousSignalQualitySCH1 100
scalar RSUScenario.node[26].nic.mac1609_4 previousSignalQualitySCH2 0
scalar RSUScenario.node[26].nic.mac1609_4 previousSignalQualitySCH3 0
scalar RSUScenario.node[26].nic.mac1609_4 previousSignalQualitySCH4 0
scalar RSUScenario.node[26].nic.mac1609_4 chPacketsCCH 26936
scalar RSUScenario.node[26].nic.mac1609_4 chPacketsSCH1 1
scalar RSUScenario.node[26].nic.mac1609_4 chPacketsSCH2 0
scalar RSUScenario.node[26].nic.mac1609_4 chPacketsSCH3 0
scalar RSUScenario.node[26].nic.mac1609_4 chPacketsSCH4 0
scalar RSUScenario.node[26].nic.mac1609_4 ReceivedUnicastPackets 0
scalar RSUScenario.node[26].nic.mac1609_4 ReceivedBroadcasts 31886
scalar RSUScenario.node[26].nic.mac1609_4 SentPackets 13653
scalar RSUScenario.node[26].nic.mac1609_4 SentAcknowledgements 0
scalar RSUScenario.node[26].nic.mac1609_4 SNIRLostPackets 358510
scalar RSUScenario.node[26].nic.mac1609_4 RXTXLostPackets 59725
scalar RSUScenario.node[26].nic.mac1609_4 TotalLostPackets 418235
scalar RSUScenario.node[26].nic.mac1609_4 DroppedPacketsInMac 30456
scalar RSUScenario.node[26].nic.mac1609_4 TooLittleTime 206
scalar RSUScenario.node[26].nic.mac1609_4 TimesIntoBackoff 22837
scalar RSUScenario.node[26].nic.mac1609_4 SlotsBackoff 33573
scalar RSUScenario.node[26].nic.mac1609_4 NumInternalContention 0
scalar RSUScenario.node[26].nic.mac1609_4 totalBusyTime 20.207931390894
scalar RSUScenario.node[26].nic.mac1609_4 throughputMetricMac:last 159.46971411882
attr source throughputSignalMac
attr title "throughputMetricMac, last"
scalar RSUScenario.node[26].nic.mac1609_4 throughputMetricMac:count 31886
attr source throughputSignalMac
attr title "throughputMetricMac, count"
scalar RSUScenario.node[26].nic.mac1609_4 throughputMetricMac:sum 2831875.1900676
attr source throughputSignalMac
attr title "throughputMetricMac, sum"
scalar RSUScenario.node[26].nic.mac1609_4 throughputMetricMac:mean 88.812494200201
attr source throughputSignalMac
attr title "throughputMetricMac, mean"
scalar RSUScenario.node[26].veinsmobility startTime 143000
scalar RSUScenario.node[26].veinsmobility totalTime 57000
scalar RSUScenario.node[26].veinsmobility stopTime 200000
scalar RSUScenario.node[26].veinsmobility minSpeed 0.81150968343936
scalar RSUScenario.node[26].veinsmobility maxSpeed 5.3908081853904
scalar RSUScenario.node[26].veinsmobility totalDistance 106.65007352073
scalar RSUScenario.node[26].veinsmobility totalCO2Emission 66.485420994761
scalar RSUScenario.node[27].appl generatedWSMs 1
scalar RSUScenario.node[27].appl receivedWSMs 12
scalar RSUScenario.node[27].appl generatedBSMs 41835
scalar RSUScenario.node[27].appl receivedBSMs 30276
scalar RSUScenario.node[27].appl generatedWSAs 0
scalar RSUScenario.node[27].appl receivedWSAs 0
scalar RSUScenario.node[27].appl beaconInterval 0.1
scalar RSUScenario.node[27].nic.phy80211p busyTime 1.3294593454462
scalar RSUScenario.node[27].nic.phy80211p ncollisions 57912
scalar RSUScenario.node[27].nic.mac1609_4 throughputMetricMac 151.47772380045
scalar RSUScenario.node[27].nic.mac1609_4 throughputMbps 0.13331384029225
scalar RSUScenario.node[27].nic.mac1609_4 throughputControlMbps 0
scalar RSUScenario.node[27].nic.mac1609_4 receivedFramesLowerMsg 30288
scalar RSUScenario.node[27].nic.mac1609_4 receivedBitsLowerPackets 0
scalar RSUScenario.node[27].nic.mac1609_4 receivedBitsLoserWsm 0
scalar RSUScenario.node[27].nic.mac1609_4 packetsNotForMe 0
scalar RSUScenario.node[27].nic.mac1609_4 receivedTotalBits 26656128
scalar RSUScenario.node[27].nic.mac1609_4 collisionsPktNonDecoded 0
scalar RSUScenario.node[27].nic.mac1609_4 chUtilizationCCH 3.069261
scalar RSUScenario.node[27].nic.mac1609_4 chUtilizationSCH1 0
scalar RSUScenario.node[27].nic.mac1609_4 chUtilizationSCH2 0
scalar RSUScenario.node[27].nic.mac1609_4 chUtilizationSCH3 0.000233
scalar RSUScenario.node[27].nic.mac1609_4 chUtilizationSCH4 0
scalar RSUScenario.node[27].nic.mac1609_4 chUtilizationHPPS 0
scalar RSUScenario.node[27].nic.mac1609_4 chUtilizationCRIT_SOL 0
scalar RSUScenario.node[27].nic.mac1609_4 previousSignalQualityCCH 100
scalar RSUScenario.node[27].nic.mac1609_4 previousSignalQualitySCH1 0
scalar RSUScenario.node[27].nic.mac1609_4 previousSignalQualitySCH2 0
scalar RSUScenario.node[27].nic.mac1609_4 previousSignalQualitySCH3 100
scalar RSUScenario.node[27].nic.mac1609_4 previousSignalQualitySCH4 0
scalar RSUScenario.node[27].nic.mac1609_4 chPacketsCCH 25252
[...]
scalar RSUScenario.node[12].nic.mac1609_4 SNIRLostPackets 700576
scalar RSUScenario.node[12].nic.mac1609_4 RXTXLostPackets 120583
scalar RSUScenario.node[12].nic.mac1609_4 TotalLostPackets 821159
scalar RSUScenario.node[12].nic.mac1609_4 DroppedPacketsInMac 93605
scalar RSUScenario.node[12].nic.mac1609_4 TooLittleTime 1169
scalar RSUScenario.node[12].nic.mac1609_4 TimesIntoBackoff 63106
scalar RSUScenario.node[12].nic.mac1609_4 SlotsBackoff 92892
scalar RSUScenario.node[12].nic.mac1609_4 NumInternalContention 0
scalar RSUScenario.node[12].nic.mac1609_4 totalBusyTime 53.180333886731
scalar RSUScenario.node[12].nic.mac1609_4 throughputMetricMac:last 487.8765003013
attr source throughputSignalMac
attr title "throughputMetricMac, last"
scalar RSUScenario.node[12].nic.mac1609_4 throughputMetricMac:count 97551
attr source throughputSignalMac
attr title "throughputMetricMac, count"
scalar RSUScenario.node[12].nic.mac1609_4 throughputMetricMac:sum 37001033.424417
attr source throughputSignalMac
attr title "throughputMetricMac, sum"
scalar RSUScenario.node[12].nic.mac1609_4 throughputMetricMac:mean 379.29937596147
attr source throughputSignalMac
attr title "throughputMetricMac, mean"
scalar RSUScenario.node[12].veinsmobility startTime 50000
scalar RSUScenario.node[12].veinsmobility totalTime 150000
scalar RSUScenario.node[12].veinsmobility stopTime 200000
scalar RSUScenario.node[12].veinsmobility minSpeed 0
scalar RSUScenario.node[12].veinsmobility maxSpeed 7.4105448994872
scalar RSUScenario.node[12].veinsmobility totalDistance 218.62111679437
scalar RSUScenario.node[12].veinsmobility totalCO2Emission 179.95103440512
scalar RSUScenario.node[13].appl generatedWSMs 1
scalar RSUScenario.node[13].appl receivedWSMs 27
scalar RSUScenario.node[13].appl generatedBSMs 92600
scalar RSUScenario.node[13].appl receivedBSMs 68083
scalar RSUScenario.node[13].appl generatedWSAs 0
scalar RSUScenario.node[13].appl receivedWSAs 0
scalar RSUScenario.node[13].appl beaconInterval 0.1
scalar RSUScenario.node[13].nic.phy80211p busyTime 1.1362245470004
scalar RSUScenario.node[13].nic.phy80211p ncollisions 118283
scalar RSUScenario.node[13].nic.mac1609_4 throughputMetricMac 340.63483142717
scalar RSUScenario.node[13].nic.mac1609_4 throughputMbps 0.29978889918899
scalar RSUScenario.node[13].nic.mac1609_4 throughputControlMbps 0
scalar RSUScenario.node[13].nic.mac1609_4 receivedFramesLowerMsg 68110
scalar RSUScenario.node[13].nic.mac1609_4 receivedBitsLowerPackets 0
scalar RSUScenario.node[13].nic.mac1609_4 receivedBitsLoserWsm 0
scalar RSUScenario.node[13].nic.mac1609_4 packetsNotForMe 0
scalar RSUScenario.node[13].nic.mac1609_4 receivedTotalBits 59942848
scalar RSUScenario.node[13].nic.mac1609_4 collisionsPktNonDecoded 0
scalar RSUScenario.node[13].nic.mac1609_4 chUtilizationCCH 6.73142
scalar RSUScenario.node[13].nic.mac1609_4 chUtilizationSCH1 0
scalar RSUScenario.node[13].nic.mac1609_4 chUtilizationSCH2 0.000233
scalar RSUScenario.node[13].nic.mac1609_4 chUtilizationSCH3 0
scalar RSUScenario.node[13].nic.mac1609_4 chUtilizationSCH4 0
scalar RSUScenario.node[13].nic.mac1609_4 chUtilizationHPPS 0
scalar RSUScenario.node[13].nic.mac1609_4 chUtilizationCRIT_SOL 0
scalar RSUScenario.node[13].nic.mac1609_4 previousSignalQualityCCH 100
scalar RSUScenario.node[13].nic.mac1609_4 previousSignalQualitySCH1 0
scalar RSUScenario.node[13].nic.mac1609_4 previousSignalQualitySCH2 100
scalar RSUScenario.node[13].nic.mac1609_4 previousSignalQualitySCH3 0
scalar RSUScenario.node[13].nic.mac1609_4 previousSignalQualitySCH4 0
scalar RSUScenario.node[13].nic.mac1609_4 chPacketsCCH 55403
scalar RSUScenario.node[13].nic.mac1609_4 chPacketsSCH1 0
scalar RSUScenario.node[13].nic.mac1609_4 chPacketsSCH2 1
scalar RSUScenario.node[13].nic.mac1609_4 chPacketsSCH3 0
scalar RSUScenario.node[13].nic.mac1609_4 chPacketsSCH4 0
scalar RSUScenario.node[13].nic.mac1609_4 ReceivedUnicastPackets 0
scalar RSUScenario.node[13].nic.mac1609_4 ReceivedBroadcasts 68110
scalar RSUScenario.node[13].nic.mac1609_4 SentPackets 28125
scalar RSUScenario.node[13].nic.mac1609_4 SentAcknowledgements 0
scalar RSUScenario.node[13].nic.mac1609_4 SNIRLostPackets 624193
scalar RSUScenario.node[13].nic.mac1609_4 RXTXLostPackets 100804
scalar RSUScenario.node[13].nic.mac1609_4 TotalLostPackets 724997
scalar RSUScenario.node[13].nic.mac1609_4 DroppedPacketsInMac 64475
scalar RSUScenario.node[13].nic.mac1609_4 TooLittleTime 943
scalar RSUScenario.node[13].nic.mac1609_4 TimesIntoBackoff 47100
scalar RSUScenario.node[13].nic.mac1609_4 SlotsBackoff 69522
scalar RSUScenario.node[13].nic.mac1609_4 NumInternalContention 0
scalar RSUScenario.node[13].nic.mac1609_4 totalBusyTime 41.590248263707
scalar RSUScenario.node[13].nic.mac1609_4 throughputMetricMac:last 340.63483142717
attr source throughputSignalMac
attr title "throughputMetricMac, last"
scalar RSUScenario.node[13].nic.mac1609_4 throughputMetricMac:count 68110
attr source throughputSignalMac
attr title "throughputMetricMac, count"
scalar RSUScenario.node[13].nic.mac1609_4 throughputMetricMac:sum 15352186.742124
attr source throughputSignalMac
attr title "throughputMetricMac, sum"
scalar RSUScenario.node[13].nic.mac1609_4 throughputMetricMac:mean 225.40282986528
attr source throughputSignalMac
attr title "throughputMetricMac, mean"
scalar RSUScenario.node[13].veinsmobility startTime 83000
scalar RSUScenario.node[13].veinsmobility totalTime 117000
scalar RSUScenario.node[13].veinsmobility stopTime 200000
scalar RSUScenario.node[13].veinsmobility minSpeed 0.00096499577547671
scalar RSUScenario.node[13].veinsmobility maxSpeed 7.1800269404833
scalar RSUScenario.node[13].veinsmobility totalDistance 209.47179765824
scalar RSUScenario.node[13].veinsmobility totalCO2Emission 144.68911034915
scalar RSUScenario.node[2].appl generatedWSMs 1
scalar RSUScenario.node[2].appl receivedWSMs 47
scalar RSUScenario.node[2].appl generatedBSMs 216990
scalar RSUScenario.node[2].appl receivedBSMs 161484
scalar RSUScenario.node[2].appl generatedWSAs 0
scalar RSUScenario.node[2].appl receivedWSAs 0
scalar RSUScenario.node[2].appl beaconInterval 0.1
scalar RSUScenario.node[2].nic.phy80211p busyTime 0.81923888659193
scalar RSUScenario.node[2].nic.phy80211p ncollisions 122382
scalar RSUScenario.node[2].nic.mac1609_4 throughputMetricMac 807.85719929249
scalar RSUScenario.node[2].nic.mac1609_4 throughputMbps 0.71096698855414
scalar RSUScenario.node[2].nic.mac1609_4 throughputControlMbps 0
scalar RSUScenario.node[2].nic.mac1609_4 receivedFramesLowerMsg 161531
scalar RSUScenario.node[2].nic.mac1609_4 receivedBitsLowerPackets 0
scalar RSUScenario.node[2].nic.mac1609_4 receivedBitsLoserWsm 0
scalar RSUScenario.node[2].nic.mac1609_4 packetsNotForMe 0
scalar RSUScenario.node[2].nic.mac1609_4 receivedTotalBits 142157808
scalar RSUScenario.node[2].nic.mac1609_4 collisionsPktNonDecoded 0
scalar RSUScenario.node[2].nic.mac1609_4 chUtilizationCCH 14.411137
scalar RSUScenario.node[2].nic.mac1609_4 chUtilizationSCH1 0
scalar RSUScenario.node[2].nic.mac1609_4 chUtilizationSCH2 0
scalar RSUScenario.node[2].nic.mac1609_4 chUtilizationSCH3 0.000233
scalar RSUScenario.node[2].nic.mac1609_4 chUtilizationSCH4 0
scalar RSUScenario.node[2].nic.mac1609_4 chUtilizationHPPS 0
scalar RSUScenario.node[2].nic.mac1609_4 chUtilizationCRIT_SOL 0
scalar RSUScenario.node[2].nic.mac1609_4 previousSignalQualityCCH 100
scalar RSUScenario.node[2].nic.mac1609_4 previousSignalQualitySCH1 0
scalar RSUScenario.node[2].nic.mac1609_4 previousSignalQualitySCH2 0
scalar RSUScenario.node[2].nic.mac1609_4 previousSignalQualitySCH3 100
scalar RSUScenario.node[2].nic.mac1609_4 previousSignalQualitySCH4 0
scalar RSUScenario.node[2].nic.mac1609_4 chPacketsCCH 115415
scalar RSUScenario.node[2].nic.mac1609_4 chPacketsSCH1 0
scalar RSUScenario.node[2].nic.mac1609_4 chPacketsSCH2 0
scalar RSUScenario.node[2].nic.mac1609_4 chPacketsSCH3 1
scalar RSUScenario.node[2].nic.mac1609_4 chPacketsSCH4 0
scalar RSUScenario.node[2].nic.mac1609_4 ReceivedUnicastPackets 0
scalar RSUScenario.node[2].nic.mac1609_4 ReceivedBroadcasts 161531
scalar RSUScenario.node[2].nic.mac1609_4 SentPackets 58370
scalar RSUScenario.node[2].nic.mac1609_4 SentAcknowledgements 0
scalar RSUScenario.node[2].nic.mac1609_4 SNIRLostPackets 666102
scalar RSUScenario.node[2].nic.mac1609_4 RXTXLostPackets 144927
scalar RSUScenario.node[2].nic.mac1609_4 TotalLostPackets 811029
scalar RSUScenario.node[2].nic.mac1609_4 DroppedPacketsInMac 158620
scalar RSUScenario.node[2].nic.mac1609_4 TooLittleTime 1818
scalar RSUScenario.node[2].nic.mac1609_4 TimesIntoBackoff 94255
scalar RSUScenario.node[2].nic.mac1609_4 SlotsBackoff 139044
scalar RSUScenario.node[2].nic.mac1609_4 NumInternalContention 0
scalar RSUScenario.node[2].nic.mac1609_4 totalBusyTime 66.564990431095
scalar RSUScenario.node[2].nic.mac1609_4 throughputMetricMac:last 807.85719929249
attr source throughputSignalMac
attr title "throughputMetricMac, last"
scalar RSUScenario.node[2].nic.mac1609_4 throughputMetricMac:count 161531
attr source throughputSignalMac
attr title "throughputMetricMac, count"
scalar RSUScenario.node[2].nic.mac1609_4 throughputMetricMac:sum 133522881.76882
attr source throughputSignalMac
attr title "throughputMetricMac, sum"
scalar RSUScenario.node[2].nic.mac1609_4 throughputMetricMac:mean 826.60840190937
attr source throughputSignalMac
attr title "throughputMetricMac, mean"
scalar RSUScenario.node[2].veinsmobility startTime 6000
scalar RSUScenario.node[2].veinsmobility totalTime 194000
scalar RSUScenario.node[2].veinsmobility stopTime 200000
scalar RSUScenario.node[2].veinsmobility minSpeed 0.75509291509716
scalar RSUScenario.node[2].veinsmobility maxSpeed 13.987930055733
scalar RSUScenario.node[2].veinsmobility totalDistance 512.96064980434
scalar RSUScenario.node[2].veinsmobility totalCO2Emission 270.36112474224
scalar RSUScenario.node[3].appl generatedWSMs 1
scalar RSUScenario.node[3].appl receivedWSMs 47
scalar RSUScenario.node[3].appl generatedBSMs 216258
scalar RSUScenario.node[3].appl receivedBSMs 160794
scalar RSUScenario.node[3].appl generatedWSAs 0
scalar RSUScenario.node[3].appl receivedWSAs 0
scalar RSUScenario.node[3].appl beaconInterval 0.1
scalar RSUScenario.node[3].nic.phy80211p busyTime 0.84499873015253
scalar RSUScenario.node[3].nic.phy80211p ncollisions 123146
scalar RSUScenario.node[3].nic.mac1609_4 throughputMetricMac 804.40734646276
scalar RSUScenario.node[3].nic.mac1609_4 throughputMbps 0.70793111813017
scalar RSUScenario.node[3].nic.mac1609_4 throughputControlMbps 0
scalar RSUScenario.node[3].nic.mac1609_4 receivedFramesLowerMsg 160841
scalar RSUScenario.node[3].nic.mac1609_4 receivedBitsLowerPackets 0
scalar RSUScenario.node[3].nic.mac1609_4 receivedBitsLoserWsm 0
scalar RSUScenario.node[3].nic.mac1609_4 packetsNotForMe 0
scalar RSUScenario.node[3].nic.mac1609_4 receivedTotalBits 141550608
scalar RSUScenario.node[3].nic.mac1609_4 collisionsPktNonDecoded 0
scalar RSUScenario.node[3].nic.mac1609_4 chUtilizationCCH 13.936772
scalar RSUScenario.node[3].nic.mac1609_4 chUtilizationSCH1 0
scalar RSUScenario.node[3].nic.mac1609_4 chUtilizationSCH2 0
scalar RSUScenario.node[3].nic.mac1609_4 chUtilizationSCH3 0.000233
scalar RSUScenario.node[3].nic.mac1609_4 chUtilizationSCH4 0
scalar RSUScenario.node[3].nic.mac1609_4 chUtilizationHPPS 0
scalar RSUScenario.node[3].nic.mac1609_4 chUtilizationCRIT_SOL 0
scalar RSUScenario.node[3].nic.mac1609_4 previousSignalQualityCCH 100
scalar RSUScenario.node[3].nic.mac1609_4 previousSignalQualitySCH1 0
scalar RSUScenario.node[3].nic.mac1609_4 previousSignalQualitySCH2 0
scalar RSUScenario.node[3].nic.mac1609_4 previousSignalQualitySCH3 100
scalar RSUScenario.node[3].nic.mac1609_4 previousSignalQualitySCH4 0
scalar RSUScenario.node[3].nic.mac1609_4 chPacketsCCH 113032
scalar RSUScenario.node[3].nic.mac1609_4 chPacketsSCH1 0
scalar RSUScenario.node[3].nic.mac1609_4 chPacketsSCH2 0
scalar RSUScenario.node[3].nic.mac1609_4 chPacketsSCH3 1
scalar RSUScenario.node[3].nic.mac1609_4 chPacketsSCH4 0
scalar RSUScenario.node[3].nic.mac1609_4 ReceivedUnicastPackets 0
scalar RSUScenario.node[3].nic.mac1609_4 ReceivedBroadcasts 160841
scalar RSUScenario.node[3].nic.mac1609_4 SentPackets 57093
scalar RSUScenario.node[3].nic.mac1609_4 SentAcknowledgements 0
scalar RSUScenario.node[3].nic.mac1609_4 SNIRLostPackets 670828
scalar RSUScenario.node[3].nic.mac1609_4 RXTXLostPackets 146924
scalar RSUScenario.node[3].nic.mac1609_4 TotalLostPackets 817752
scalar RSUScenario.node[3].nic.mac1609_4 DroppedPacketsInMac 159165
scalar RSUScenario.node[3].nic.mac1609_4 TooLittleTime 1296
scalar RSUScenario.node[3].nic.mac1609_4 TimesIntoBackoff 92842
scalar RSUScenario.node[3].nic.mac1609_4 SlotsBackoff 137047
scalar RSUScenario.node[3].nic.mac1609_4 NumInternalContention 0
scalar RSUScenario.node[3].nic.mac1609_4 totalBusyTime 66.038103755043
scalar RSUScenario.node[3].nic.mac1609_4 throughputMetricMac:last 804.40734646276
attr source throughputSignalMac
attr title "throughputMetricMac, last"
scalar RSUScenario.node[3].nic.mac1609_4 throughputMetricMac:count 160841
attr source throughputSignalMac
attr title "throughputMetricMac, count"
scalar RSUScenario.node[3].nic.mac1609_4 throughputMetricMac:sum 130312253.3465
attr source throughputSignalMac
attr title "throughputMetricMac, sum"
scalar RSUScenario.node[3].nic.mac1609_4 throughputMetricMac:mean 810.19300642559
attr source throughputSignalMac
attr title "throughputMetricMac, mean"
scalar RSUScenario.node[3].veinsmobility startTime 11000
scalar RSUScenario.node[3].veinsmobility totalTime 189000
scalar RSUScenario.node[3].veinsmobility stopTime 200000
scalar RSUScenario.node[3].veinsmobility minSpeed 0.98564389594301
scalar RSUScenario.node[3].veinsmobility maxSpeed 13.979706056794
scalar RSUScenario.node[3].veinsmobility totalDistance 493.42334988291
scalar RSUScenario.node[3].veinsmobility totalCO2Emission 263.12705076468
scalar RSUScenario.manager roiArea 0
scalar RSUScenario.manager activeVehicleCount 39
scalar RSUScenario.manager totalVehicleCount 201
scalar RSUScenario.rsu[0].appl generatedWSMs 8
scalar RSUScenario.rsu[0].appl receivedWSMs 8
scalar RSUScenario.rsu[0].appl generatedBSMs 0
scalar RSUScenario.rsu[0].appl receivedBSMs 107546
scalar RSUScenario.rsu[0].appl generatedWSAs 0
scalar RSUScenario.rsu[0].appl receivedWSAs 0
scalar RSUScenario.rsu[0].appl beaconInterval 0.1
scalar RSUScenario.rsu[0].nic.phy80211p busyTime 0.73451527999467
scalar RSUScenario.rsu[0].nic.phy80211p ncollisions 222207
scalar RSUScenario.rsu[0].nic.mac1609_4 ReceivedUnicastPackets 0
scalar RSUScenario.rsu[0].nic.mac1609_4 ReceivedBroadcasts 107554
scalar RSUScenario.rsu[0].nic.mac1609_4 SentPackets 8
scalar RSUScenario.rsu[0].nic.mac1609_4 SentAcknowledgements 0
scalar RSUScenario.rsu[0].nic.mac1609_4 SNIRLostPackets 657564
scalar RSUScenario.rsu[0].nic.mac1609_4 RXTXLostPackets 0
scalar RSUScenario.rsu[0].nic.mac1609_4 TotalLostPackets 657564
scalar RSUScenario.rsu[0].nic.mac1609_4 DroppedPacketsInMac 0
scalar RSUScenario.rsu[0].nic.mac1609_4 TooLittleTime 0
scalar RSUScenario.rsu[0].nic.mac1609_4 TimesIntoBackoff 13
scalar RSUScenario.rsu[0].nic.mac1609_4 SlotsBackoff 13
scalar RSUScenario.rsu[0].nic.mac1609_4 NumInternalContention 0
scalar RSUScenario.rsu[0].nic.mac1609_4 totalBusyTime 63.38339086208
scalar RSUScenario.metricsApplication.metrics packetsDeliveredToMetrics 201
scalar RSUScenario.metricsApplication.metrics throughputMetric 1.005
scalar RSUScenario.metricsApplication.metrics throughputMetric:last 1.005
attr source throughputSignal
attr title "throughputMetric, last"
scalar RSUScenario.metricsApplication.metrics throughputMetric:count 201
attr source throughputSignal
attr title "throughputMetric, count"
scalar RSUScenario.metricsApplication.metrics throughputMetric:sum 205.87803094812
attr source throughputSignal
attr title "throughputMetric, sum"
scalar RSUScenario.metricsApplication.metrics throughputMetric:mean 1.0242688106872
attr source throughputSignal
attr title "throughputMetric, mean"
scalar RSUScenario.metricsApplication.appl generatedWSMs 0
scalar RSUScenario.metricsApplication.appl receivedWSMs 0
scalar RSUScenario.metricsApplication.appl generatedBSMs 0
scalar RSUScenario.metricsApplication.appl receivedBSMs 0
scalar RSUScenario.metricsApplication.appl generatedWSAs 0
scalar RSUScenario.metricsApplication.appl receivedWSAs 0
scalar RSUScenario.metricsApplication.appl beaconInterval 1
scalar RSUScenario.metricsApplication.nic.phy80211p busyTime 0
scalar RSUScenario.metricsApplication.nic.phy80211p ncollisions 0
scalar RSUScenario.metricsApplication.nic.mac1609_4 throughputMetricMac 0
scalar RSUScenario.metricsApplication.nic.mac1609_4 throughputMbps 0
scalar RSUScenario.metricsApplication.nic.mac1609_4 throughputControlMbps 0
scalar RSUScenario.metricsApplication.nic.mac1609_4 receivedFramesLowerMsg 0
scalar RSUScenario.metricsApplication.nic.mac1609_4 receivedBitsLowerPackets 0
scalar RSUScenario.metricsApplication.nic.mac1609_4 receivedBitsLoserWsm 0
scalar RSUScenario.metricsApplication.nic.mac1609_4 packetsNotForMe 0
scalar RSUScenario.metricsApplication.nic.mac1609_4 receivedTotalBits 0
scalar RSUScenario.metricsApplication.nic.mac1609_4 collisionsPktNonDecoded 0
scalar RSUScenario.metricsApplication.nic.mac1609_4 chUtilizationCCH 0
scalar RSUScenario.metricsApplication.nic.mac1609_4 chUtilizationSCH1 0
scalar RSUScenario.metricsApplication.nic.mac1609_4 chUtilizationSCH2 0
scalar RSUScenario.metricsApplication.nic.mac1609_4 chUtilizationSCH3 0
scalar RSUScenario.metricsApplication.nic.mac1609_4 chUtilizationSCH4 0
scalar RSUScenario.metricsApplication.nic.mac1609_4 chUtilizationHPPS 0
scalar RSUScenario.metricsApplication.nic.mac1609_4 chUtilizationCRIT_SOL 0
scalar RSUScenario.metricsApplication.nic.mac1609_4 previousSignalQualityCCH 0
scalar RSUScenario.metricsApplication.nic.mac1609_4 previousSignalQualitySCH1 0
scalar RSUScenario.metricsApplication.nic.mac1609_4 previousSignalQualitySCH2 0
scalar RSUScenario.metricsApplication.nic.mac1609_4 previousSignalQualitySCH3 0
scalar RSUScenario.metricsApplication.nic.mac1609_4 previousSignalQualitySCH4 0
scalar RSUScenario.metricsApplication.nic.mac1609_4 chPacketsCCH 0
scalar RSUScenario.metricsApplication.nic.mac1609_4 chPacketsSCH1 0
scalar RSUScenario.metricsApplication.nic.mac1609_4 chPacketsSCH2 0
scalar RSUScenario.metricsApplication.nic.mac1609_4 chPacketsSCH3 0
scalar RSUScenario.metricsApplication.nic.mac1609_4 chPacketsSCH4 0
scalar RSUScenario.metricsApplication.nic.mac1609_4 ReceivedUnicastPackets 0
scalar RSUScenario.metricsApplication.nic.mac1609_4 ReceivedBroadcasts 0
scalar RSUScenario.metricsApplication.nic.mac1609_4 SentPackets 0
scalar RSUScenario.metricsApplication.nic.mac1609_4 SentAcknowledgements 0
scalar RSUScenario.metricsApplication.nic.mac1609_4 SNIRLostPackets 0
scalar RSUScenario.metricsApplication.nic.mac1609_4 RXTXLostPackets 0
scalar RSUScenario.metricsApplication.nic.mac1609_4 TotalLostPackets 0
scalar RSUScenario.metricsApplication.nic.mac1609_4 DroppedPacketsInMac 0
scalar RSUScenario.metricsApplication.nic.mac1609_4 TooLittleTime 0
scalar RSUScenario.metricsApplication.nic.mac1609_4 TimesIntoBackoff 0
scalar RSUScenario.metricsApplication.nic.mac1609_4 SlotsBackoff 0
scalar RSUScenario.metricsApplication.nic.mac1609_4 NumInternalContention 0
scalar RSUScenario.metricsApplication.nic.mac1609_4 totalBusyTime 100.00018082901
scalar RSUScenario.metricsApplication.nic.mac1609_4 throughputMetricMac:last nan
attr source throughputSignalMac
attr title "throughputMetricMac, last"
scalar RSUScenario.metricsApplication.nic.mac1609_4 throughputMetricMac:count 0
attr source throughputSignalMac
attr title "throughputMetricMac, count"
scalar RSUScenario.metricsApplication.nic.mac1609_4 throughputMetricMac:sum 0
attr source throughputSignalMac
attr title "throughputMetricMac, sum"
scalar RSUScenario.metricsApplication.nic.mac1609_4 throughputMetricMac:mean -nan
attr source throughputSignalMac
attr title "throughputMetricMac, mean"

