version 2
run CCH_SCH_Safety_B_100Bytes_Q_1-0-20180728-23:21:31-23206
attr configname CCH_SCH_Safety_B_100Bytes_Q_1
attr datetime 20180728-23:21:31
attr experiment CCH_SCH_Safety_B_100Bytes_Q_1
attr inifile omnetpp.ini
attr iterationvars $0=1
attr iterationvarsf 1-
attr measurement $0=1
attr network vanets.RSUScenario
attr processid 23206
attr repetition 0
attr replication #0
attr resultdir results
attr runnumber 0
attr seedset 0
param **.debug false
param **.coreDebug false
param *.annotations.draw false
param *.rsu[*].appl.beaconLengthBits 800bit
param *.node[*].appl.beaconLengthBits 800bit
param *.metricsApplication.appl.beaconLengthBits 800bit
param *.node[*].appl.sendBeacons true
param *.rsu[*].appl.sendBeacons false
param *.metricsApplicaiton[*].appl.sendBeacons false
param *.node[*].appl.dataOnSch true
param *.rsu[*].appl.dataOnSch false
param *.metricsApplication[*].appl.dataOnSch false
param *.node[*].appl.sendData true
param *.rsu[*].appl.sendData true
param *.metricsApplication[*].appl.sendData false
param *.node[*].appl.beaconInterval 0.1s
param *.rsu[*].appl.beaconInterval 0.1s
param *.metricsApplication[*].appl.beaconInterval 0.1s
param *.node[*].appl.beaconPriority 3
param *.rsu[*].appl.beaconPriority 3
param *.metricsApplication[*].appl.beaconPriority 3
param *.node[*].appl.dataPriority 2
param *.rsu[*].appl.dataPriority 2
param *.metricsApplication.appl.beaconPriority 2
param *.**.nic.mac1609_4.queueSize 1
param *.**.nic.mac1609_4.useServiceChannel true
param *.manager.launchConfig "xmldoc(\"erlangen.launchd.xml\")"
param **.debug false
param **.coreDebug false
param *.playgroundSizeX 2500m
param *.playgroundSizeY 2500m
param *.playgroundSizeZ 50m
param *.annotations.draw false
param *.obstacles.debug false
param *.obstacles.obstacles "xmldoc(\"config.xml\", \"//AnalogueModel[@type='SimpleObstacleShadowing']/obstacles\")"
param *.world.useTorus false
param *.world.use2D false
param *.manager.updateInterval 1s
param *.manager.host "\"localhost\""
param *.manager.port 9999
param *.manager.autoShutdown true
param *.manager.launchConfig "xmldoc(\"erlangen.launchd.xml\")"
param *.manager.moduleType "\"vanets.CarWithMetrics\""
param *.manager.moduleName "\"node\""
param *.manager.moduleDisplayString "\"\""
param *.manager.margin 25
param *.manager.numVehicles 5
param *.manager.debug true
param *.rsu[0].mobility.x 2000
param *.rsu[0].mobility.y 2000
param *.rsu[0].mobility.z 3
param *.rsu[*].applType "\"TraCIDemoRSU11p\""
param *.rsu[*].appl.headerLength "80 bit"
param *.rsu[*].appl.sendBeacons false
param *.rsu[*].appl.dataOnSch false
param *.rsu[*].appl.beaconInterval 1s
param *.rsu[*].appl.beaconUserPriority 7
param *.rsu[*].appl.dataUserPriority 5
param *.metricsApplication.applType "\"TraCIDemoRSU11p\""
param *.metricsApplication.appl.debug false
param *.metricsApplication.appl.headerLength "80 bit"
param *.metricsApplication.appl.sendBeacons false
param *.metricsApplication.appl.dataOnSch false
param *.metricsApplication.appl.beaconInterval 1s
param *.metricsApplication.appl.beaconUserPriority 7
param *.metricsApplication.appl.dataUserPriority 2
param *.connectionManager.sendDirect true
param *.connectionManager.maxInterfDist 2600m
param *.connectionManager.drawMaxIntfDist false
param *.**.nic.mac1609_4.useServiceChannel false
param *.**.nic.mac1609_4.txPower 100mW
param *.**.nic.mac1609_4.bitrate 6Mbps
param *.**.nic.phy80211p.sensitivity -89dBm
param *.**.nic.mac1609_4.queueSize 1
param *.**.nic.phy80211p.useThermalNoise true
param *.**.nic.phy80211p.thermalNoise -110dBm
param *.**.nic.phy80211p.decider "xmldoc(\"config.xml\", \"/root/Decider[@type='Decider80211p']\")"
param *.**.nic.phy80211p.decider.collectCollisionStats true
param *.**.nic.phy80211p.analogueModels "xmldoc(\"config.xml\")"
param *.**.nic.phy80211p.usePropagationDelay true
param *.**.nic.phy80211p.collectCollisionStatistics true
param *.**.nic.phy80211p.antenna "xmldoc(\"antenna.xml\", \"/root/Antenna[@id='monopole']\")"
param *.node[*].applType "\"TraCIDemo11p\""
param *.node[*].appl.headerLength "80 bit"
param *.node[*].appl.sendBeacons false
param *.node[*].appl.dataOnSch false
param *.node[*].appl.beaconInterval 1s
param *.node[*].veinsmobilityType.debug true
param *.node[*].veinsmobility.x 0
param *.node[*].veinsmobility.y 0
param *.node[*].veinsmobility.z 1.895
param *.node[*0].veinsmobility.accidentCount 1
param *.node[*0].veinsmobility.accidentStart 10s
param *.node[*0].veinsmobility.accidentDuration 30s

scalar RSUScenario.node[1].appl generatedWSMs 1
scalar RSUScenario.node[1].appl receivedWSMs 46
scalar RSUScenario.node[1].appl generatedBSMs 1969
scalar RSUScenario.node[1].appl receivedBSMs 37811
scalar RSUScenario.node[1].appl generatedWSAs 3
scalar RSUScenario.node[1].appl receivedWSAs 94
scalar RSUScenario.node[1].nic.phy80211p busyTime 0.036993380710686
scalar RSUScenario.node[1].nic.phy80211p ncollisions 5
scalar RSUScenario.node[1].nic.mac1609_4 throughputMetricMac 189.80232757423
scalar RSUScenario.node[1].nic.mac1609_4 throughputMbps 0.16670148733536
scalar RSUScenario.node[1].nic.mac1609_4 throughputControlMbps 0
scalar RSUScenario.node[1].nic.mac1609_4 receivedFramesLowerMsg 37951
scalar RSUScenario.node[1].nic.mac1609_4 receivedBitsLowerPackets 0
scalar RSUScenario.node[1].nic.mac1609_4 receivedBitsLoserWsm 0
scalar RSUScenario.node[1].nic.mac1609_4 packetsNotForMe 0
scalar RSUScenario.node[1].nic.mac1609_4 receivedTotalBits 33331984
scalar RSUScenario.node[1].nic.mac1609_4 collisionsPktNonDecoded 0
scalar RSUScenario.node[1].nic.mac1609_4 chUtilizationSCH1 0.000233
scalar RSUScenario.node[1].nic.mac1609_4 chUtilizationSCH2 0
scalar RSUScenario.node[1].nic.mac1609_4 chUtilizationSCH3 0
scalar RSUScenario.node[1].nic.mac1609_4 chUtilizationSCH4 0
scalar RSUScenario.node[1].nic.mac1609_4 chUtilizationCCH 0.380212
scalar RSUScenario.node[1].nic.mac1609_4 chUtilizationHPPS 0
scalar RSUScenario.node[1].nic.mac1609_4 chUtilizationCRIT_SOL 0
scalar RSUScenario.node[1].nic.mac1609_4 ReceivedUnicastPackets 0
scalar RSUScenario.node[1].nic.mac1609_4 ReceivedBroadcasts 37951
scalar RSUScenario.node[1].nic.mac1609_4 SentPackets 1973
scalar RSUScenario.node[1].nic.mac1609_4 SentAcknowledgements 0
scalar RSUScenario.node[1].nic.mac1609_4 SNIRLostPackets 60
scalar RSUScenario.node[1].nic.mac1609_4 RXTXLostPackets 0
scalar RSUScenario.node[1].nic.mac1609_4 TotalLostPackets 60
scalar RSUScenario.node[1].nic.mac1609_4 DroppedPacketsInMac 0
scalar RSUScenario.node[1].nic.mac1609_4 TooLittleTime 0
scalar RSUScenario.node[1].nic.mac1609_4 TimesIntoBackoff 1973
scalar RSUScenario.node[1].nic.mac1609_4 SlotsBackoff 3015
scalar RSUScenario.node[1].nic.mac1609_4 NumInternalContention 0
scalar RSUScenario.node[1].nic.mac1609_4 totalBusyTime 11.676036124248
scalar RSUScenario.node[1].nic.mac1609_4 throughputMetricMac:last 189.80232757423
attr source throughputSignalMac
attr title "throughputMetricMac, last"
scalar RSUScenario.node[1].nic.mac1609_4 throughputMetricMac:count 37951
attr source throughputSignalMac
attr title "throughputMetricMac, count"
scalar RSUScenario.node[1].nic.mac1609_4 throughputMetricMac:sum 4839974.4007302
attr source throughputSignalMac
attr title "throughputMetricMac, sum"
scalar RSUScenario.node[1].nic.mac1609_4 throughputMetricMac:mean 127.5321967993
attr source throughputSignalMac
attr title "throughputMetricMac, mean"
scalar RSUScenario.node[1].veinsmobility startTime 3
scalar RSUScenario.node[1].veinsmobility totalTime 197
scalar RSUScenario.node[1].veinsmobility stopTime 200
scalar RSUScenario.node[1].veinsmobility minSpeed 1.3195987516439
scalar RSUScenario.node[1].veinsmobility maxSpeed 1.3888888888889
scalar RSUScenario.node[1].veinsmobility totalDistance 266.75224284019
scalar RSUScenario.node[1].veinsmobility totalCO2Emission 230.42600343821
scalar RSUScenario.node[4].appl generatedWSMs 1
scalar RSUScenario.node[4].appl receivedWSMs 46
scalar RSUScenario.node[4].appl generatedBSMs 1879
scalar RSUScenario.node[4].appl receivedBSMs 37704
scalar RSUScenario.node[4].appl generatedWSAs 3
scalar RSUScenario.node[4].appl receivedWSAs 94
scalar RSUScenario.node[4].nic.phy80211p busyTime 0.038644851063857
scalar RSUScenario.node[4].nic.phy80211p ncollisions 5
scalar RSUScenario.node[4].nic.mac1609_4 throughputMetricMac 189.26719417688
scalar RSUScenario.node[4].nic.mac1609_4 throughputMbps 0.16623056994562
scalar RSUScenario.node[4].nic.mac1609_4 throughputControlMbps 0
scalar RSUScenario.node[4].nic.mac1609_4 receivedFramesLowerMsg 37844
scalar RSUScenario.node[4].nic.mac1609_4 receivedBitsLowerPackets 0
scalar RSUScenario.node[4].nic.mac1609_4 receivedBitsLoserWsm 0
scalar RSUScenario.node[4].nic.mac1609_4 packetsNotForMe 0
scalar RSUScenario.node[4].nic.mac1609_4 receivedTotalBits 33237824
scalar RSUScenario.node[4].nic.mac1609_4 collisionsPktNonDecoded 0
scalar RSUScenario.node[4].nic.mac1609_4 chUtilizationSCH1 0.000233
scalar RSUScenario.node[4].nic.mac1609_4 chUtilizationSCH2 0
scalar RSUScenario.node[4].nic.mac1609_4 chUtilizationSCH3 0
scalar RSUScenario.node[4].nic.mac1609_4 chUtilizationSCH4 0
scalar RSUScenario.node[4].nic.mac1609_4 chUtilizationCCH 0.362842
scalar RSUScenario.node[4].nic.mac1609_4 chUtilizationHPPS 0
scalar RSUScenario.node[4].nic.mac1609_4 chUtilizationCRIT_SOL 0
scalar RSUScenario.node[4].nic.mac1609_4 ReceivedUnicastPackets 0
scalar RSUScenario.node[4].nic.mac1609_4 ReceivedBroadcasts 37844
scalar RSUScenario.node[4].nic.mac1609_4 SentPackets 1883
scalar RSUScenario.node[4].nic.mac1609_4 SentAcknowledgements 0
scalar RSUScenario.node[4].nic.mac1609_4 SNIRLostPackets 50
scalar RSUScenario.node[4].nic.mac1609_4 RXTXLostPackets 0
scalar RSUScenario.node[4].nic.mac1609_4 TotalLostPackets 50
scalar RSUScenario.node[4].nic.mac1609_4 DroppedPacketsInMac 0
scalar RSUScenario.node[4].nic.mac1609_4 TooLittleTime 0
scalar RSUScenario.node[4].nic.mac1609_4 TimesIntoBackoff 1884
scalar RSUScenario.node[4].nic.mac1609_4 SlotsBackoff 2817
scalar RSUScenario.node[4].nic.mac1609_4 NumInternalContention 0
scalar RSUScenario.node[4].nic.mac1609_4 totalBusyTime 10.558166471666
scalar RSUScenario.node[4].nic.mac1609_4 throughputMetricMac:last 189.26719417688
attr source throughputSignalMac
attr title "throughputMetricMac, last"
scalar RSUScenario.node[4].nic.mac1609_4 throughputMetricMac:count 37844
attr source throughputSignalMac
attr title "throughputMetricMac, count"
scalar RSUScenario.node[4].nic.mac1609_4 throughputMetricMac:sum 4794338.7552453
attr source throughputSignalMac
attr title "throughputMetricMac, sum"
scalar RSUScenario.node[4].nic.mac1609_4 throughputMetricMac:mean 126.68689238044
attr source throughputSignalMac
attr title "throughputMetricMac, mean"
scalar RSUScenario.node[4].veinsmobility startTime 12
scalar RSUScenario.node[4].veinsmobility totalTime 188
scalar RSUScenario.node[4].veinsmobility stopTime 200
scalar RSUScenario.node[4].veinsmobility minSpeed 0.82437053541553
scalar RSUScenario.node[4].veinsmobility maxSpeed 1.3888888888889
scalar RSUScenario.node[4].veinsmobility totalDistance 252.71420418519
scalar RSUScenario.node[4].veinsmobility totalCO2Emission 219.94251658444
scalar RSUScenario.node[0].appl generatedWSMs 3
scalar RSUScenario.node[0].appl receivedWSMs 18
scalar RSUScenario.node[0].appl generatedBSMs 1989
scalar RSUScenario.node[0].appl receivedBSMs 7925
scalar RSUScenario.node[0].appl generatedWSAs 3
scalar RSUScenario.node[0].appl receivedWSAs 33
scalar RSUScenario.node[0].nic.phy80211p busyTime 0.007677829145728
scalar RSUScenario.node[0].nic.phy80211p ncollisions 0
scalar RSUScenario.node[0].nic.mac1609_4 throughputMetricMac 60.45705861228
scalar RSUScenario.node[0].nic.mac1609_4 throughputMbps 0.053032665003211
scalar RSUScenario.node[0].nic.mac1609_4 throughputControlMbps 0
scalar RSUScenario.node[0].nic.mac1609_4 receivedFramesLowerMsg 7976
scalar RSUScenario.node[0].nic.mac1609_4 receivedBitsLowerPackets 0
scalar RSUScenario.node[0].nic.mac1609_4 receivedBitsLoserWsm 0
scalar RSUScenario.node[0].nic.mac1609_4 packetsNotForMe 0
scalar RSUScenario.node[0].nic.mac1609_4 receivedTotalBits 6996512
scalar RSUScenario.node[0].nic.mac1609_4 collisionsPktNonDecoded 0
scalar RSUScenario.node[0].nic.mac1609_4 chUtilizationSCH1 0.000699
scalar RSUScenario.node[0].nic.mac1609_4 chUtilizationSCH2 0
scalar RSUScenario.node[0].nic.mac1609_4 chUtilizationSCH3 0
scalar RSUScenario.node[0].nic.mac1609_4 chUtilizationSCH4 0
scalar RSUScenario.node[0].nic.mac1609_4 chUtilizationCCH 0.384072
scalar RSUScenario.node[0].nic.mac1609_4 chUtilizationHPPS 0
scalar RSUScenario.node[0].nic.mac1609_4 chUtilizationCRIT_SOL 0
scalar RSUScenario.node[0].nic.mac1609_4 ReceivedUnicastPackets 0
scalar RSUScenario.node[0].nic.mac1609_4 ReceivedBroadcasts 7976
scalar RSUScenario.node[0].nic.mac1609_4 SentPackets 1995
scalar RSUScenario.node[0].nic.mac1609_4 SentAcknowledgements 0
scalar RSUScenario.node[0].nic.mac1609_4 SNIRLostPackets 0
scalar RSUScenario.node[0].nic.mac1609_4 RXTXLostPackets 0
scalar RSUScenario.node[0].nic.mac1609_4 TotalLostPackets 0
scalar RSUScenario.node[0].nic.mac1609_4 DroppedPacketsInMac 0
scalar RSUScenario.node[0].nic.mac1609_4 TooLittleTime 0
scalar RSUScenario.node[0].nic.mac1609_4 TimesIntoBackoff 2068
scalar RSUScenario.node[0].nic.mac1609_4 SlotsBackoff 3066
scalar RSUScenario.node[0].nic.mac1609_4 NumInternalContention 0
scalar RSUScenario.node[0].nic.mac1609_4 totalBusyTime 17.495766165734
scalar RSUScenario.node[0].nic.mac1609_4 throughputMetricMac:last 60.45705861228
attr source throughputSignalMac
attr title "throughputMetricMac, last"
scalar RSUScenario.node[0].nic.mac1609_4 throughputMetricMac:count 7976
attr source throughputSignalMac
attr title "throughputMetricMac, count"
scalar RSUScenario.node[0].nic.mac1609_4 throughputMetricMac:sum 449376.73316413
attr source throughputSignalMac
attr title "throughputMetricMac, sum"
scalar RSUScenario.node[0].nic.mac1609_4 throughputMetricMac:mean 56.341114990488
attr source throughputSignalMac
attr title "throughputMetricMac, mean"
scalar RSUScenario.node[0].veinsmobility startTime 1
scalar RSUScenario.node[0].veinsmobility totalTime 199
scalar RSUScenario.node[0].veinsmobility stopTime 200
scalar RSUScenario.node[0].veinsmobility minSpeed 0
scalar RSUScenario.node[0].veinsmobility maxSpeed 13.998128671225
scalar RSUScenario.node[0].veinsmobility totalDistance 2198.0734118155
scalar RSUScenario.node[0].veinsmobility totalCO2Emission 451.91260206671
scalar RSUScenario.node[5].appl generatedWSMs 1
scalar RSUScenario.node[5].appl receivedWSMs 46
scalar RSUScenario.node[5].appl generatedBSMs 1829
scalar RSUScenario.node[5].appl receivedBSMs 37515
scalar RSUScenario.node[5].appl generatedWSAs 3
scalar RSUScenario.node[5].appl receivedWSAs 94
scalar RSUScenario.node[5].nic.phy80211p busyTime 0.039502426229536
scalar RSUScenario.node[5].nic.phy80211p ncollisions 5
scalar RSUScenario.node[5].nic.mac1609_4 throughputMetricMac 188.32195818867
scalar RSUScenario.node[5].nic.mac1609_4 throughputMbps 0.1653987622765
scalar RSUScenario.node[5].nic.mac1609_4 throughputControlMbps 0
scalar RSUScenario.node[5].nic.mac1609_4 receivedFramesLowerMsg 37655
scalar RSUScenario.node[5].nic.mac1609_4 receivedBitsLowerPackets 0
scalar RSUScenario.node[5].nic.mac1609_4 receivedBitsLoserWsm 0
scalar RSUScenario.node[5].nic.mac1609_4 packetsNotForMe 0
scalar RSUScenario.node[5].nic.mac1609_4 receivedTotalBits 33071504
scalar RSUScenario.node[5].nic.mac1609_4 collisionsPktNonDecoded 0
scalar RSUScenario.node[5].nic.mac1609_4 chUtilizationSCH1 0.000233
scalar RSUScenario.node[5].nic.mac1609_4 chUtilizationSCH2 0
scalar RSUScenario.node[5].nic.mac1609_4 chUtilizationSCH3 0
scalar RSUScenario.node[5].nic.mac1609_4 chUtilizationSCH4 0
scalar RSUScenario.node[5].nic.mac1609_4 chUtilizationCCH 0.353192
scalar RSUScenario.node[5].nic.mac1609_4 chUtilizationHPPS 0
scalar RSUScenario.node[5].nic.mac1609_4 chUtilizationCRIT_SOL 0
scalar RSUScenario.node[5].nic.mac1609_4 ReceivedUnicastPackets 0
scalar RSUScenario.node[5].nic.mac1609_4 ReceivedBroadcasts 37655
scalar RSUScenario.node[5].nic.mac1609_4 SentPackets 1833
scalar RSUScenario.node[5].nic.mac1609_4 SentAcknowledgements 0
scalar RSUScenario.node[5].nic.mac1609_4 SNIRLostPackets 50
scalar RSUScenario.node[5].nic.mac1609_4 RXTXLostPackets 0
scalar RSUScenario.node[5].nic.mac1609_4 TotalLostPackets 50
scalar RSUScenario.node[5].nic.mac1609_4 DroppedPacketsInMac 0
scalar RSUScenario.node[5].nic.mac1609_4 TooLittleTime 0
scalar RSUScenario.node[5].nic.mac1609_4 TimesIntoBackoff 1836
scalar RSUScenario.node[5].nic.mac1609_4 SlotsBackoff 2695
scalar RSUScenario.node[5].nic.mac1609_4 NumInternalContention 0
scalar RSUScenario.node[5].nic.mac1609_4 totalBusyTime 10.156581685962
scalar RSUScenario.node[5].nic.mac1609_4 throughputMetricMac:last 188.32195818867
attr source throughputSignalMac
attr title "throughputMetricMac, last"
scalar RSUScenario.node[5].nic.mac1609_4 throughputMetricMac:count 37655
attr source throughputSignalMac
attr title "throughputMetricMac, count"
scalar RSUScenario.node[5].nic.mac1609_4 throughputMetricMac:sum 4724672.8876473
attr source throughputSignalMac
attr title "throughputMetricMac, sum"
scalar RSUScenario.node[5].nic.mac1609_4 throughputMetricMac:mean 125.47265668961
attr source throughputSignalMac
attr title "throughputMetricMac, mean"
scalar RSUScenario.node[5].veinsmobility startTime 17
scalar RSUScenario.node[5].veinsmobility totalTime 183
scalar RSUScenario.node[5].veinsmobility stopTime 200
scalar RSUScenario.node[5].veinsmobility minSpeed 0.83774402481715
scalar RSUScenario.node[5].veinsmobility maxSpeed 13.958589120226
scalar RSUScenario.node[5].veinsmobility totalDistance 356.08221082044
scalar RSUScenario.node[5].veinsmobility totalCO2Emission 247.75260550498
scalar RSUScenario.node[14].appl generatedWSMs 1
scalar RSUScenario.node[14].appl receivedWSMs 25
scalar RSUScenario.node[14].appl generatedBSMs 1139
scalar RSUScenario.node[14].appl receivedBSMs 30734
scalar RSUScenario.node[14].appl generatedWSAs 2
scalar RSUScenario.node[14].appl receivedWSAs 59
scalar RSUScenario.node[14].nic.phy80211p busyTime 0.051878245614068
scalar RSUScenario.node[14].nic.phy80211p ncollisions 5
scalar RSUScenario.node[14].nic.mac1609_4 throughputMetricMac 154.12843223279
scalar RSUScenario.node[14].nic.mac1609_4 throughputMbps 0.13542496848665
scalar RSUScenario.node[14].nic.mac1609_4 throughputControlMbps 0
scalar RSUScenario.node[14].nic.mac1609_4 receivedFramesLowerMsg 30818
scalar RSUScenario.node[14].nic.mac1609_4 receivedBitsLowerPackets 0
scalar RSUScenario.node[14].nic.mac1609_4 receivedBitsLoserWsm 0
scalar RSUScenario.node[14].nic.mac1609_4 packetsNotForMe 0
scalar RSUScenario.node[14].nic.mac1609_4 receivedTotalBits 27078240
scalar RSUScenario.node[14].nic.mac1609_4 collisionsPktNonDecoded 0
scalar RSUScenario.node[14].nic.mac1609_4 chUtilizationSCH1 0.000233
scalar RSUScenario.node[14].nic.mac1609_4 chUtilizationSCH2 0
scalar RSUScenario.node[14].nic.mac1609_4 chUtilizationSCH3 0
scalar RSUScenario.node[14].nic.mac1609_4 chUtilizationSCH4 0
scalar RSUScenario.node[14].nic.mac1609_4 chUtilizationCCH 0.219957
scalar RSUScenario.node[14].nic.mac1609_4 chUtilizationHPPS 0
scalar RSUScenario.node[14].nic.mac1609_4 chUtilizationCRIT_SOL 0
scalar RSUScenario.node[14].nic.mac1609_4 ReceivedUnicastPackets 0
scalar RSUScenario.node[14].nic.mac1609_4 ReceivedBroadcasts 30818
scalar RSUScenario.node[14].nic.mac1609_4 SentPackets 1142
scalar RSUScenario.node[14].nic.mac1609_4 SentAcknowledgements 0
scalar RSUScenario.node[14].nic.mac1609_4 SNIRLostPackets 20
scalar RSUScenario.node[14].nic.mac1609_4 RXTXLostPackets 0
scalar RSUScenario.node[14].nic.mac1609_4 TotalLostPackets 20
scalar RSUScenario.node[14].nic.mac1609_4 DroppedPacketsInMac 0
scalar RSUScenario.node[14].nic.mac1609_4 TooLittleTime 0
scalar RSUScenario.node[14].nic.mac1609_4 TimesIntoBackoff 1143
scalar RSUScenario.node[14].nic.mac1609_4 SlotsBackoff 1737
scalar RSUScenario.node[14].nic.mac1609_4 NumInternalContention 0
scalar RSUScenario.node[14].nic.mac1609_4 totalBusyTime 6.379417369002
scalar RSUScenario.node[14].nic.mac1609_4 throughputMetricMac:last 154.12843223279
attr source throughputSignalMac
attr title "throughputMetricMac, last"
scalar RSUScenario.node[14].nic.mac1609_4 throughputMetricMac:count 30818
attr source throughputSignalMac
attr title "throughputMetricMac, count"
scalar RSUScenario.node[14].nic.mac1609_4 throughputMetricMac:sum 2877105.8932643
attr source throughputSignalMac
attr title "throughputMetricMac, sum"
scalar RSUScenario.node[14].nic.mac1609_4 throughputMetricMac:mean 93.357969149987
attr source throughputSignalMac
attr title "throughputMetricMac, mean"
scalar RSUScenario.node[14].veinsmobility startTime 86
scalar RSUScenario.node[14].veinsmobility totalTime 114
scalar RSUScenario.node[14].veinsmobility stopTime 200
scalar RSUScenario.node[14].veinsmobility minSpeed 0.44683507437876
scalar RSUScenario.node[14].veinsmobility maxSpeed 7.1334462066043
scalar RSUScenario.node[14].veinsmobility totalDistance 199.48821822597
scalar RSUScenario.node[14].veinsmobility totalCO2Emission 137.46632826726
scalar RSUScenario.node[15].appl generatedWSMs 1
scalar RSUScenario.node[15].appl receivedWSMs 25
scalar RSUScenario.node[15].appl generatedBSMs 1119
scalar RSUScenario.node[15].appl receivedBSMs 30325
scalar RSUScenario.node[15].appl generatedWSAs 3
scalar RSUScenario.node[15].appl receivedWSAs 58
scalar RSUScenario.node[15].nic.phy80211p busyTime 0.052102928571461
scalar RSUScenario.node[15].nic.phy80211p ncollisions 5
scalar RSUScenario.node[15].nic.mac1609_4 throughputMetricMac 152.07792091215
scalar RSUScenario.node[15].nic.mac1609_4 throughputMbps 0.13362451952217
scalar RSUScenario.node[15].nic.mac1609_4 throughputControlMbps 0
scalar RSUScenario.node[15].nic.mac1609_4 receivedFramesLowerMsg 30408
scalar RSUScenario.node[15].nic.mac1609_4 receivedBitsLowerPackets 0
scalar RSUScenario.node[15].nic.mac1609_4 receivedBitsLoserWsm 0
scalar RSUScenario.node[15].nic.mac1609_4 packetsNotForMe 0
scalar RSUScenario.node[15].nic.mac1609_4 receivedTotalBits 26718240
scalar RSUScenario.node[15].nic.mac1609_4 collisionsPktNonDecoded 0
scalar RSUScenario.node[15].nic.mac1609_4 chUtilizationSCH1 0.000233
scalar RSUScenario.node[15].nic.mac1609_4 chUtilizationSCH2 0
scalar RSUScenario.node[15].nic.mac1609_4 chUtilizationSCH3 0
scalar RSUScenario.node[15].nic.mac1609_4 chUtilizationSCH4 0
scalar RSUScenario.node[15].nic.mac1609_4 chUtilizationCCH 0.216162
scalar RSUScenario.node[15].nic.mac1609_4 chUtilizationHPPS 0
scalar RSUScenario.node[15].nic.mac1609_4 chUtilizationCRIT_SOL 0
scalar RSUScenario.node[15].nic.mac1609_4 ReceivedUnicastPackets 0
scalar RSUScenario.node[15].nic.mac1609_4 ReceivedBroadcasts 30408
scalar RSUScenario.node[15].nic.mac1609_4 SentPackets 1123
scalar RSUScenario.node[15].nic.mac1609_4 SentAcknowledgements 0
scalar RSUScenario.node[15].nic.mac1609_4 SNIRLostPackets 20
scalar RSUScenario.node[15].nic.mac1609_4 RXTXLostPackets 0
scalar RSUScenario.node[15].nic.mac1609_4 TotalLostPackets 20
scalar RSUScenario.node[15].nic.mac1609_4 DroppedPacketsInMac 0
scalar RSUScenario.node[15].nic.mac1609_4 TooLittleTime 0
scalar RSUScenario.node[15].nic.mac1609_4 TimesIntoBackoff 1390
scalar RSUScenario.node[15].nic.mac1609_4 SlotsBackoff 2049
scalar RSUScenario.node[15].nic.mac1609_4 NumInternalContention 0
scalar RSUScenario.node[15].nic.mac1609_4 totalBusyTime 6.332399104435
scalar RSUScenario.node[15].nic.mac1609_4 throughputMetricMac:last 152.07792091215
attr source throughputSignalMac
attr title "throughputMetricMac, last"
scalar RSUScenario.node[15].nic.mac1609_4 throughputMetricMac:count 30408
attr source throughputSignalMac
attr title "throughputMetricMac, count"
scalar RSUScenario.node[15].nic.mac1609_4 throughputMetricMac:sum 2797698.6712716
attr source throughputSignalMac
attr title "throughputMetricMac, sum"
scalar RSUScenario.node[15].nic.mac1609_4 throughputMetricMac:mean 92.005349620875
attr source throughputSignalMac
attr title "throughputMetricMac, mean"
scalar RSUScenario.node[15].veinsmobility startTime 88
scalar RSUScenario.node[15].veinsmobility totalTime 112
scalar RSUScenario.node[15].veinsmobility stopTime 200
scalar RSUScenario.node[15].veinsmobility minSpeed 0
scalar RSUScenario.node[15].veinsmobility maxSpeed 6.8203385037629
scalar RSUScenario.node[15].veinsmobility totalDistance 191.1297368111
scalar RSUScenario.node[15].veinsmobility totalCO2Emission 135.19762320358
scalar RSUScenario.node[16].appl generatedWSMs 1
scalar RSUScenario.node[16].appl receivedWSMs 25
scalar RSUScenario.node[16].appl generatedBSMs 1099
scalar RSUScenario.node[16].appl receivedBSMs 29997
scalar RSUScenario.node[16].appl generatedWSAs 2
scalar RSUScenario.node[16].appl receivedWSAs 59
scalar RSUScenario.node[16].nic.phy80211p busyTime 0.05245912727276
scalar RSUScenario.node[16].nic.phy80211p ncollisions 4
scalar RSUScenario.node[16].nic.mac1609_4 throughputMetricMac 150.44251309961
scalar RSUScenario.node[16].nic.mac1609_4 throughputMbps 0.13218135964951
scalar RSUScenario.node[16].nic.mac1609_4 throughputControlMbps 0
scalar RSUScenario.node[16].nic.mac1609_4 receivedFramesLowerMsg 30081
scalar RSUScenario.node[16].nic.mac1609_4 receivedBitsLowerPackets 0
scalar RSUScenario.node[16].nic.mac1609_4 receivedBitsLoserWsm 0
scalar RSUScenario.node[16].nic.mac1609_4 packetsNotForMe 0
scalar RSUScenario.node[16].nic.mac1609_4 receivedTotalBits 26429680
scalar RSUScenario.node[16].nic.mac1609_4 collisionsPktNonDecoded 0
scalar RSUScenario.node[16].nic.mac1609_4 chUtilizationSCH1 0.000233
scalar RSUScenario.node[16].nic.mac1609_4 chUtilizationSCH2 0
scalar RSUScenario.node[16].nic.mac1609_4 chUtilizationSCH3 0
scalar RSUScenario.node[16].nic.mac1609_4 chUtilizationSCH4 0
scalar RSUScenario.node[16].nic.mac1609_4 chUtilizationCCH 0.212237
scalar RSUScenario.node[16].nic.mac1609_4 chUtilizationHPPS 0
scalar RSUScenario.node[16].nic.mac1609_4 chUtilizationCRIT_SOL 0
scalar RSUScenario.node[16].nic.mac1609_4 ReceivedUnicastPackets 0
scalar RSUScenario.node[16].nic.mac1609_4 ReceivedBroadcasts 30081
scalar RSUScenario.node[16].nic.mac1609_4 SentPackets 1102
scalar RSUScenario.node[16].nic.mac1609_4 SentAcknowledgements 0
scalar RSUScenario.node[16].nic.mac1609_4 SNIRLostPackets 9
scalar RSUScenario.node[16].nic.mac1609_4 RXTXLostPackets 0
scalar RSUScenario.node[16].nic.mac1609_4 TotalLostPackets 9
scalar RSUScenario.node[16].nic.mac1609_4 DroppedPacketsInMac 0
scalar RSUScenario.node[16].nic.mac1609_4 TooLittleTime 0
scalar RSUScenario.node[16].nic.mac1609_4 TimesIntoBackoff 1103
scalar RSUScenario.node[16].nic.mac1609_4 SlotsBackoff 1643
scalar RSUScenario.node[16].nic.mac1609_4 NumInternalContention 0
scalar RSUScenario.node[16].nic.mac1609_4 totalBusyTime 6.086756157308
scalar RSUScenario.node[16].nic.mac1609_4 throughputMetricMac:last 150.44251309961
attr source throughputSignalMac
attr title "throughputMetricMac, last"
scalar RSUScenario.node[16].nic.mac1609_4 throughputMetricMac:count 30081
attr source throughputSignalMac
attr title "throughputMetricMac, count"
scalar RSUScenario.node[16].nic.mac1609_4 throughputMetricMac:sum 2731295.286898
attr source throughputSignalMac
attr title "throughputMetricMac, sum"
scalar RSUScenario.node[16].nic.mac1609_4 throughputMetricMac:mean 90.798021571691
attr source throughputSignalMac
attr title "throughputMetricMac, mean"
scalar RSUScenario.node[16].veinsmobility startTime 90
scalar RSUScenario.node[16].veinsmobility totalTime 110
scalar RSUScenario.node[16].veinsmobility stopTime 200
scalar RSUScenario.node[16].veinsmobility minSpeed 0.44014457971905
scalar RSUScenario.node[16].veinsmobility maxSpeed 6.3011961638623
scalar RSUScenario.node[16].veinsmobility totalDistance 182.83228921298
scalar RSUScenario.node[16].veinsmobility totalCO2Emission 131.94726579661
scalar RSUScenario.node[17].appl generatedWSMs 1
scalar RSUScenario.node[17].appl receivedWSMs 25
scalar RSUScenario.node[17].appl generatedBSMs 1079
scalar RSUScenario.node[17].appl receivedBSMs 29700
scalar RSUScenario.node[17].appl generatedWSAs 2
scalar RSUScenario.node[17].appl receivedWSAs 59
scalar RSUScenario.node[17].nic.phy80211p busyTime 0.05289903703707
scalar RSUScenario.node[17].nic.phy80211p ncollisions 2
scalar RSUScenario.node[17].nic.mac1609_4 throughputMetricMac 148.95714270037
scalar RSUScenario.node[17].nic.mac1609_4 throughputMbps 0.13087423369821
scalar RSUScenario.node[17].nic.mac1609_4 throughputControlMbps 0
scalar RSUScenario.node[17].nic.mac1609_4 receivedFramesLowerMsg 29784
scalar RSUScenario.node[17].nic.mac1609_4 receivedBitsLowerPackets 0
scalar RSUScenario.node[17].nic.mac1609_4 receivedBitsLoserWsm 0
scalar RSUScenario.node[17].nic.mac1609_4 packetsNotForMe 0
scalar RSUScenario.node[17].nic.mac1609_4 receivedTotalBits 26168320
scalar RSUScenario.node[17].nic.mac1609_4 collisionsPktNonDecoded 0
scalar RSUScenario.node[17].nic.mac1609_4 chUtilizationSCH1 0.000233
scalar RSUScenario.node[17].nic.mac1609_4 chUtilizationSCH2 0
scalar RSUScenario.node[17].nic.mac1609_4 chUtilizationSCH3 0
scalar RSUScenario.node[17].nic.mac1609_4 chUtilizationSCH4 0
scalar RSUScenario.node[17].nic.mac1609_4 chUtilizationCCH 0.208377
scalar RSUScenario.node[17].nic.mac1609_4 chUtilizationHPPS 0
scalar RSUScenario.node[17].nic.mac1609_4 chUtilizationCRIT_SOL 0
scalar RSUScenario.node[17].nic.mac1609_4 ReceivedUnicastPackets 0
scalar RSUScenario.node[17].nic.mac1609_4 ReceivedBroadcasts 29784
scalar RSUScenario.node[17].nic.mac1609_4 SentPackets 1082
scalar RSUScenario.node[17].nic.mac1609_4 SentAcknowledgements 0
scalar RSUScenario.node[17].nic.mac1609_4 SNIRLostPackets 7
scalar RSUScenario.node[17].nic.mac1609_4 RXTXLostPackets 0
scalar RSUScenario.node[17].nic.mac1609_4 TotalLostPackets 7
scalar RSUScenario.node[17].nic.mac1609_4 DroppedPacketsInMac 0
scalar RSUScenario.node[17].nic.mac1609_4 TooLittleTime 0
scalar RSUScenario.node[17].nic.mac1609_4 TimesIntoBackoff 1682
scalar RSUScenario.node[17].nic.mac1609_4 SlotsBackoff 2487
scalar RSUScenario.node[17].nic.mac1609_4 NumInternalContention 0
scalar RSUScenario.node[17].nic.mac1609_4 totalBusyTime 6.159596423265
scalar RSUScenario.node[17].nic.mac1609_4 throughputMetricMac:last 148.95714270037
attr source throughputSignalMac
attr title "throughputMetricMac, last"
scalar RSUScenario.node[17].nic.mac1609_4 throughputMetricMac:count 29784
attr source throughputSignalMac
attr title "throughputMetricMac, count"
scalar RSUScenario.node[17].nic.mac1609_4 throughputMetricMac:sum 2670008.7031068
attr source throughputSignalMac
attr title "throughputMetricMac, sum"
scalar RSUScenario.node[17].nic.mac1609_4 throughputMetricMac:mean 89.645739427439
attr source throughputSignalMac
attr title "throughputMetricMac, mean"
scalar RSUScenario.node[17].veinsmobility startTime 92
scalar RSUScenario.node[17].veinsmobility totalTime 108
scalar RSUScenario.node[17].veinsmobility stopTime 200
scalar RSUScenario.node[17].veinsmobility minSpeed 0.2383977351168
scalar RSUScenario.node[17].veinsmobility maxSpeed 5.4657378624806
scalar RSUScenario.node[17].veinsmobility totalDistance 174.82840037133
scalar RSUScenario.node[17].veinsmobility totalCO2Emission 129.3842554114
scalar RSUScenario.node[18].appl generatedWSMs 1
scalar RSUScenario.node[18].appl receivedWSMs 25
scalar RSUScenario.node[18].appl generatedBSMs 1059
scalar RSUScenario.node[18].appl receivedBSMs 29371
scalar RSUScenario.node[18].appl generatedWSAs 2
scalar RSUScenario.node[18].appl receivedWSAs 59
scalar RSUScenario.node[18].nic.phy80211p busyTime 0.053301207547202
scalar RSUScenario.node[18].nic.phy80211p ncollisions 2
scalar RSUScenario.node[18].nic.mac1609_4 throughputMetricMac 147.31173239611
scalar RSUScenario.node[18].nic.mac1609_4 throughputMbps 0.12942627263049
scalar RSUScenario.node[18].nic.mac1609_4 throughputControlMbps 0
scalar RSUScenario.node[18].nic.mac1609_4 receivedFramesLowerMsg 29455
scalar RSUScenario.node[18].nic.mac1609_4 receivedBitsLowerPackets 0
scalar RSUScenario.node[18].nic.mac1609_4 receivedBitsLoserWsm 0
scalar RSUScenario.node[18].nic.mac1609_4 packetsNotForMe 0
scalar RSUScenario.node[18].nic.mac1609_4 receivedTotalBits 25878800
scalar RSUScenario.node[18].nic.mac1609_4 collisionsPktNonDecoded 0
scalar RSUScenario.node[18].nic.mac1609_4 chUtilizationSCH1 0.000233
scalar RSUScenario.node[18].nic.mac1609_4 chUtilizationSCH2 0
scalar RSUScenario.node[18].nic.mac1609_4 chUtilizationSCH3 0
scalar RSUScenario.node[18].nic.mac1609_4 chUtilizationSCH4 0
scalar RSUScenario.node[18].nic.mac1609_4 chUtilizationCCH 0.204517
scalar RSUScenario.node[18].nic.mac1609_4 chUtilizationHPPS 0
scalar RSUScenario.node[18].nic.mac1609_4 chUtilizationCRIT_SOL 0
scalar RSUScenario.node[18].nic.mac1609_4 ReceivedUnicastPackets 0
scalar RSUScenario.node[18].nic.mac1609_4 ReceivedBroadcasts 29455
scalar RSUScenario.node[18].nic.mac1609_4 SentPackets 1062
scalar RSUScenario.node[18].nic.mac1609_4 SentAcknowledgements 0
scalar RSUScenario.node[18].nic.mac1609_4 SNIRLostPackets 7
scalar RSUScenario.node[18].nic.mac1609_4 RXTXLostPackets 0
scalar RSUScenario.node[18].nic.mac1609_4 TotalLostPackets 7
scalar RSUScenario.node[18].nic.mac1609_4 DroppedPacketsInMac 0
scalar RSUScenario.node[18].nic.mac1609_4 TooLittleTime 0
scalar RSUScenario.node[18].nic.mac1609_4 TimesIntoBackoff 1062
scalar RSUScenario.node[18].nic.mac1609_4 SlotsBackoff 1643
scalar RSUScenario.node[18].nic.mac1609_4 NumInternalContention 0
scalar RSUScenario.node[18].nic.mac1609_4 totalBusyTime 6.024004155633
scalar RSUScenario.node[18].nic.mac1609_4 throughputMetricMac:last 147.31173239611
attr source throughputSignalMac
attr title "throughputMetricMac, last"
scalar RSUScenario.node[18].nic.mac1609_4 throughputMetricMac:count 29455
attr source throughputSignalMac
attr title "throughputMetricMac, count"
scalar RSUScenario.node[18].nic.mac1609_4 throughputMetricMac:sum 2603788.6463198
attr source throughputSignalMac
attr title "throughputMetricMac, sum"
scalar RSUScenario.node[18].nic.mac1609_4 throughputMetricMac:mean 88.398867639443
attr source throughputSignalMac
attr title "throughputMetricMac, mean"
scalar RSUScenario.node[18].veinsmobility startTime 94
scalar RSUScenario.node[18].veinsmobility totalTime 106
scalar RSUScenario.node[18].veinsmobility stopTime 200
scalar RSUScenario.node[18].veinsmobility minSpeed 0.42773956329504
scalar RSUScenario.node[18].veinsmobility maxSpeed 5.009624306905
scalar RSUScenario.node[18].veinsmobility totalDistance 166.98121524166
scalar RSUScenario.node[18].veinsmobility totalCO2Emission 125.44722950652
scalar RSUScenario.node[19].appl generatedWSMs 1
scalar RSUScenario.node[19].appl receivedWSMs 25
scalar RSUScenario.node[19].appl generatedBSMs 1039
scalar RSUScenario.node[19].appl receivedBSMs 29032
scalar RSUScenario.node[19].appl generatedWSAs 2
scalar RSUScenario.node[19].appl receivedWSAs 59
scalar RSUScenario.node[19].nic.phy80211p busyTime 0.053700384615417
scalar RSUScenario.node[19].nic.phy80211p ncollisions 2
scalar RSUScenario.node[19].nic.mac1609_4 throughputMetricMac 145.61630962448
scalar RSUScenario.node[19].nic.mac1609_4 throughputMbps 0.12793430059148
scalar RSUScenario.node[19].nic.mac1609_4 throughputControlMbps 0
scalar RSUScenario.node[19].nic.mac1609_4 receivedFramesLowerMsg 29116
scalar RSUScenario.node[19].nic.mac1609_4 receivedBitsLowerPackets 0
scalar RSUScenario.node[19].nic.mac1609_4 receivedBitsLoserWsm 0
scalar RSUScenario.node[19].nic.mac1609_4 packetsNotForMe 0
scalar RSUScenario.node[19].nic.mac1609_4 receivedTotalBits 25580480
scalar RSUScenario.node[19].nic.mac1609_4 collisionsPktNonDecoded 0
scalar RSUScenario.node[19].nic.mac1609_4 chUtilizationSCH1 0.000233
scalar RSUScenario.node[19].nic.mac1609_4 chUtilizationSCH2 0
scalar RSUScenario.node[19].nic.mac1609_4 chUtilizationSCH3 0
scalar RSUScenario.node[19].nic.mac1609_4 chUtilizationSCH4 0
scalar RSUScenario.node[19].nic.mac1609_4 chUtilizationCCH 0.200657
scalar RSUScenario.node[19].nic.mac1609_4 chUtilizationHPPS 0
scalar RSUScenario.node[19].nic.mac1609_4 chUtilizationCRIT_SOL 0
scalar RSUScenario.node[19].nic.mac1609_4 ReceivedUnicastPackets 0
scalar RSUScenario.node[19].nic.mac1609_4 ReceivedBroadcasts 29116
scalar RSUScenario.node[19].nic.mac1609_4 SentPackets 1042
scalar RSUScenario.node[19].nic.mac1609_4 SentAcknowledgements 0
scalar RSUScenario.node[19].nic.mac1609_4 SNIRLostPackets 7
scalar RSUScenario.node[19].nic.mac1609_4 RXTXLostPackets 0
scalar RSUScenario.node[19].nic.mac1609_4 TotalLostPackets 7
scalar RSUScenario.node[19].nic.mac1609_4 DroppedPacketsInMac 0
scalar RSUScenario.node[19].nic.mac1609_4 TooLittleTime 0
scalar RSUScenario.node[19].nic.mac1609_4 TimesIntoBackoff 1952
scalar RSUScenario.node[19].nic.mac1609_4 SlotsBackoff 2842
scalar RSUScenario.node[19].nic.mac1609_4 NumInternalContention 0
scalar RSUScenario.node[19].nic.mac1609_4 totalBusyTime 5.896250056467
scalar RSUScenario.node[19].nic.mac1609_4 throughputMetricMac:last 145.61630962448
attr source throughputSignalMac
attr title "throughputMetricMac, last"
scalar RSUScenario.node[19].nic.mac1609_4 throughputMetricMac:count 29116
attr source throughputSignalMac
attr title "throughputMetricMac, count"
scalar RSUScenario.node[19].nic.mac1609_4 throughputMetricMac:sum 2536282.4469812
attr source throughputSignalMac
attr title "throughputMetricMac, sum"
scalar RSUScenario.node[19].nic.mac1609_4 throughputMetricMac:mean 87.109577104726
attr source throughputSignalMac
attr title "throughputMetricMac, mean"
scalar RSUScenario.node[19].veinsmobility startTime 96
scalar RSUScenario.node[19].veinsmobility totalTime 104
scalar RSUScenario.node[19].veinsmobility stopTime 200
scalar RSUScenario.node[19].veinsmobility minSpeed 0.43514961487963
scalar RSUScenario.node[19].veinsmobility maxSpeed 4.6532842827868
scalar RSUScenario.node[19].veinsmobility totalDistance 159.6350757384
scalar RSUScenario.node[19].veinsmobility totalCO2Emission 123.1610892824
scalar RSUScenario.node[20].appl generatedWSMs 3
scalar RSUScenario.node[20].appl receivedWSMs 24
scalar RSUScenario.node[20].appl generatedBSMs 1019
scalar RSUScenario.node[20].appl receivedBSMs 28653
scalar RSUScenario.node[20].appl generatedWSAs 3
scalar RSUScenario.node[20].appl receivedWSAs 58
scalar RSUScenario.node[20].nic.phy80211p busyTime 0.054034745098072
scalar RSUScenario.node[20].nic.phy80211p ncollisions 1
scalar RSUScenario.node[20].nic.mac1609_4 throughputMetricMac 143.71083447705
scalar RSUScenario.node[20].nic.mac1609_4 throughputMbps 0.12626036318008
scalar RSUScenario.node[20].nic.mac1609_4 throughputControlMbps 0
scalar RSUScenario.node[20].nic.mac1609_4 receivedFramesLowerMsg 28735
scalar RSUScenario.node[20].nic.mac1609_4 receivedBitsLowerPackets 0
scalar RSUScenario.node[20].nic.mac1609_4 receivedBitsLoserWsm 0
scalar RSUScenario.node[20].nic.mac1609_4 packetsNotForMe 0
scalar RSUScenario.node[20].nic.mac1609_4 receivedTotalBits 25245776
scalar RSUScenario.node[20].nic.mac1609_4 collisionsPktNonDecoded 0
scalar RSUScenario.node[20].nic.mac1609_4 chUtilizationSCH1 0.000233
scalar RSUScenario.node[20].nic.mac1609_4 chUtilizationSCH2 0.000233
scalar RSUScenario.node[20].nic.mac1609_4 chUtilizationSCH3 0.000233
scalar RSUScenario.node[20].nic.mac1609_4 chUtilizationSCH4 0
scalar RSUScenario.node[20].nic.mac1609_4 chUtilizationCCH 0.196862
scalar RSUScenario.node[20].nic.mac1609_4 chUtilizationHPPS 0
scalar RSUScenario.node[20].nic.mac1609_4 chUtilizationCRIT_SOL 0
scalar RSUScenario.node[20].nic.mac1609_4 ReceivedUnicastPackets 0
scalar RSUScenario.node[20].nic.mac1609_4 ReceivedBroadcasts 28735
scalar RSUScenario.node[20].nic.mac1609_4 SentPackets 1025
scalar RSUScenario.node[20].nic.mac1609_4 SentAcknowledgements 0
scalar RSUScenario.node[20].nic.mac1609_4 SNIRLostPackets 6
scalar RSUScenario.node[20].nic.mac1609_4 RXTXLostPackets 0
scalar RSUScenario.node[20].nic.mac1609_4 TotalLostPackets 6
scalar RSUScenario.node[20].nic.mac1609_4 DroppedPacketsInMac 0
scalar RSUScenario.node[20].nic.mac1609_4 TooLittleTime 0
scalar RSUScenario.node[20].nic.mac1609_4 TimesIntoBackoff 1025
scalar RSUScenario.node[20].nic.mac1609_4 SlotsBackoff 1491
scalar RSUScenario.node[20].nic.mac1609_4 NumInternalContention 0
scalar RSUScenario.node[20].nic.mac1609_4 totalBusyTime 5.988779904156
scalar RSUScenario.node[20].nic.mac1609_4 throughputMetricMac:last 143.71083447705
attr source throughputSignalMac
attr title "throughputMetricMac, last"
scalar RSUScenario.node[20].nic.mac1609_4 throughputMetricMac:count 28735
attr source throughputSignalMac
attr title "throughputMetricMac, count"
scalar RSUScenario.node[20].nic.mac1609_4 throughputMetricMac:sum 2462310.998761
attr source throughputSignalMac
attr title "throughputMetricMac, sum"
scalar RSUScenario.node[20].nic.mac1609_4 throughputMetricMac:mean 85.690307943659
attr source throughputSignalMac
attr title "throughputMetricMac, mean"
scalar RSUScenario.node[20].veinsmobility startTime 98
scalar RSUScenario.node[20].veinsmobility totalTime 102
scalar RSUScenario.node[20].veinsmobility stopTime 200
scalar RSUScenario.node[20].veinsmobility minSpeed 0
scalar RSUScenario.node[20].veinsmobility maxSpeed 9.8554973309629
scalar RSUScenario.node[20].veinsmobility totalDistance 152.42363900794
scalar RSUScenario.node[20].veinsmobility totalCO2Emission 128.61992606896
scalar RSUScenario.node[21].appl generatedWSMs 3
scalar RSUScenario.node[21].appl receivedWSMs 24
scalar RSUScenario.node[21].appl generatedBSMs 989
scalar RSUScenario.node[21].appl receivedBSMs 28084
scalar RSUScenario.node[21].appl generatedWSAs 2
scalar RSUScenario.node[21].appl receivedWSAs 59
scalar RSUScenario.node[21].nic.phy80211p busyTime 0.054567353535386
scalar RSUScenario.node[21].nic.phy80211p ncollisions 1
scalar RSUScenario.node[21].nic.mac1609_4 throughputMetricMac 140.87012612843
scalar RSUScenario.node[21].nic.mac1609_4 throughputMbps 0.12375653883566
scalar RSUScenario.node[21].nic.mac1609_4 throughputControlMbps 0
scalar RSUScenario.node[21].nic.mac1609_4 receivedFramesLowerMsg 28167
scalar RSUScenario.node[21].nic.mac1609_4 receivedBitsLowerPackets 0
scalar RSUScenario.node[21].nic.mac1609_4 receivedBitsLoserWsm 0
scalar RSUScenario.node[21].nic.mac1609_4 packetsNotForMe 0
scalar RSUScenario.node[21].nic.mac1609_4 receivedTotalBits 24745136
scalar RSUScenario.node[21].nic.mac1609_4 collisionsPktNonDecoded 0
scalar RSUScenario.node[21].nic.mac1609_4 chUtilizationSCH1 0.000233
scalar RSUScenario.node[21].nic.mac1609_4 chUtilizationSCH2 0.000233
scalar RSUScenario.node[21].nic.mac1609_4 chUtilizationSCH3 0.000233
scalar RSUScenario.node[21].nic.mac1609_4 chUtilizationSCH4 0
scalar RSUScenario.node[21].nic.mac1609_4 chUtilizationCCH 0.191007
scalar RSUScenario.node[21].nic.mac1609_4 chUtilizationHPPS 0
scalar RSUScenario.node[21].nic.mac1609_4 chUtilizationCRIT_SOL 0
scalar RSUScenario.node[21].nic.mac1609_4 ReceivedUnicastPackets 0
scalar RSUScenario.node[21].nic.mac1609_4 ReceivedBroadcasts 28167
scalar RSUScenario.node[21].nic.mac1609_4 SentPackets 994
scalar RSUScenario.node[21].nic.mac1609_4 SentAcknowledgements 0
scalar RSUScenario.node[21].nic.mac1609_4 SNIRLostPackets 3
scalar RSUScenario.node[21].nic.mac1609_4 RXTXLostPackets 3
scalar RSUScenario.node[21].nic.mac1609_4 TotalLostPackets 6
scalar RSUScenario.node[21].nic.mac1609_4 DroppedPacketsInMac 0
scalar RSUScenario.node[21].nic.mac1609_4 TooLittleTime 0
scalar RSUScenario.node[21].nic.mac1609_4 TimesIntoBackoff 994
scalar RSUScenario.node[21].nic.mac1609_4 SlotsBackoff 1535
scalar RSUScenario.node[21].nic.mac1609_4 NumInternalContention 0
scalar RSUScenario.node[21].nic.mac1609_4 totalBusyTime 5.72451550196
scalar RSUScenario.node[21].nic.mac1609_4 throughputMetricMac:last 140.87012612843
attr source throughputSignalMac
attr title "throughputMetricMac, last"
scalar RSUScenario.node[21].nic.mac1609_4 throughputMetricMac:count 28167
attr source throughputSignalMac
attr title "throughputMetricMac, count"
scalar RSUScenario.node[21].nic.mac1609_4 throughputMetricMac:sum 2354008.9710203
attr source throughputSignalMac
attr title "throughputMetricMac, sum"
scalar RSUScenario.node[21].nic.mac1609_4 throughputMetricMac:mean 83.573293961737
attr source throughputSignalMac
attr title "throughputMetricMac, mean"
scalar RSUScenario.node[21].veinsmobility startTime 101
scalar RSUScenario.node[21].veinsmobility totalTime 99
scalar RSUScenario.node[21].veinsmobility stopTime 200
scalar RSUScenario.node[21].veinsmobility minSpeed 0
scalar RSUScenario.node[21].veinsmobility maxSpeed 8.5447925259565
scalar RSUScenario.node[21].veinsmobility totalDistance 144.34916147203
scalar RSUScenario.node[21].veinsmobility totalCO2Emission 118.86766946719
scalar RSUScenario.node[22].appl generatedWSMs 1
scalar RSUScenario.node[22].appl receivedWSMs 26
scalar RSUScenario.node[22].appl generatedBSMs 969
scalar RSUScenario.node[22].appl receivedBSMs 27695
scalar RSUScenario.node[22].appl generatedWSAs 3
scalar RSUScenario.node[22].appl receivedWSAs 58
scalar RSUScenario.node[22].nic.phy80211p busyTime 0.054926185567042
scalar RSUScenario.node[22].nic.phy80211p ncollisions 1
scalar RSUScenario.node[22].nic.mac1609_4 throughputMetricMac 138.92964225149
scalar RSUScenario.node[22].nic.mac1609_4 throughputMbps 0.12205515458032
scalar RSUScenario.node[22].nic.mac1609_4 throughputControlMbps 0
scalar RSUScenario.node[22].nic.mac1609_4 receivedFramesLowerMsg 27779
scalar RSUScenario.node[22].nic.mac1609_4 receivedBitsLowerPackets 0
scalar RSUScenario.node[22].nic.mac1609_4 receivedBitsLoserWsm 0
scalar RSUScenario.node[22].nic.mac1609_4 packetsNotForMe 0
scalar RSUScenario.node[22].nic.mac1609_4 receivedTotalBits 24404944
scalar RSUScenario.node[22].nic.mac1609_4 collisionsPktNonDecoded 0
scalar RSUScenario.node[22].nic.mac1609_4 chUtilizationSCH1 0.000233
scalar RSUScenario.node[22].nic.mac1609_4 chUtilizationSCH2 0
scalar RSUScenario.node[22].nic.mac1609_4 chUtilizationSCH3 0
scalar RSUScenario.node[22].nic.mac1609_4 chUtilizationSCH4 0
scalar RSUScenario.node[22].nic.mac1609_4 chUtilizationCCH 0.187212
scalar RSUScenario.node[22].nic.mac1609_4 chUtilizationHPPS 0
scalar RSUScenario.node[22].nic.mac1609_4 chUtilizationCRIT_SOL 0
scalar RSUScenario.node[22].nic.mac1609_4 ReceivedUnicastPackets 0
scalar RSUScenario.node[22].nic.mac1609_4 ReceivedBroadcasts 27779
scalar RSUScenario.node[22].nic.mac1609_4 SentPackets 973
scalar RSUScenario.node[22].nic.mac1609_4 SentAcknowledgements 0
scalar RSUScenario.node[22].nic.mac1609_4 SNIRLostPackets 5
scalar RSUScenario.node[22].nic.mac1609_4 RXTXLostPackets 1
scalar RSUScenario.node[22].nic.mac1609_4 TotalLostPackets 6
scalar RSUScenario.node[22].nic.mac1609_4 DroppedPacketsInMac 0
scalar RSUScenario.node[22].nic.mac1609_4 TooLittleTime 0
scalar RSUScenario.node[22].nic.mac1609_4 TimesIntoBackoff 974
scalar RSUScenario.node[22].nic.mac1609_4 SlotsBackoff 1503
scalar RSUScenario.node[22].nic.mac1609_4 NumInternalContention 0
scalar RSUScenario.node[22].nic.mac1609_4 totalBusyTime 5.727730036813
scalar RSUScenario.node[22].nic.mac1609_4 throughputMetricMac:last 138.92964225149
attr source throughputSignalMac
attr title "throughputMetricMac, last"
scalar RSUScenario.node[22].nic.mac1609_4 throughputMetricMac:count 27779
attr source throughputSignalMac
attr title "throughputMetricMac, count"
scalar RSUScenario.node[22].nic.mac1609_4 throughputMetricMac:sum 2281487.8678961
attr source throughputSignalMac
attr title "throughputMetricMac, sum"
scalar RSUScenario.node[22].nic.mac1609_4 throughputMetricMac:mean 82.12994952648
attr source throughputSignalMac
attr title "throughputMetricMac, mean"
scalar RSUScenario.node[22].veinsmobility startTime 103
scalar RSUScenario.node[22].veinsmobility totalTime 97
scalar RSUScenario.node[22].veinsmobility stopTime 200
scalar RSUScenario.node[22].veinsmobility minSpeed 0
scalar RSUScenario.node[22].veinsmobility maxSpeed 7.6265488707437
scalar RSUScenario.node[22].veinsmobility totalDistance 137.68261085865
scalar RSUScenario.node[22].veinsmobility totalCO2Emission 115.25284542644
scalar RSUScenario.node[23].appl generatedWSMs 1
scalar RSUScenario.node[23].appl receivedWSMs 25
scalar RSUScenario.node[23].appl generatedBSMs 939
scalar RSUScenario.node[23].appl receivedBSMs 27076
scalar RSUScenario.node[23].appl generatedWSAs 2
scalar RSUScenario.node[23].appl receivedWSAs 59
scalar RSUScenario.node[23].nic.phy80211p busyTime 0.05541795744684
scalar RSUScenario.node[23].nic.phy80211p ncollisions 2
scalar RSUScenario.node[23].nic.mac1609_4 throughputMetricMac 135.83387029964
scalar RSUScenario.node[23].nic.mac1609_4 throughputMbps 0.11932575398573
scalar RSUScenario.node[23].nic.mac1609_4 throughputControlMbps 0
scalar RSUScenario.node[23].nic.mac1609_4 receivedFramesLowerMsg 27160
scalar RSUScenario.node[23].nic.mac1609_4 receivedBitsLowerPackets 0
scalar RSUScenario.node[23].nic.mac1609_4 receivedBitsLoserWsm 0
scalar RSUScenario.node[23].nic.mac1609_4 packetsNotForMe 0
scalar RSUScenario.node[23].nic.mac1609_4 receivedTotalBits 23859200
scalar RSUScenario.node[23].nic.mac1609_4 collisionsPktNonDecoded 0
scalar RSUScenario.node[23].nic.mac1609_4 chUtilizationSCH1 0.000233
scalar RSUScenario.node[23].nic.mac1609_4 chUtilizationSCH2 0
scalar RSUScenario.node[23].nic.mac1609_4 chUtilizationSCH3 0
scalar RSUScenario.node[23].nic.mac1609_4 chUtilizationSCH4 0
scalar RSUScenario.node[23].nic.mac1609_4 chUtilizationCCH 0.181357
scalar RSUScenario.node[23].nic.mac1609_4 chUtilizationHPPS 0
scalar RSUScenario.node[23].nic.mac1609_4 chUtilizationCRIT_SOL 0
scalar RSUScenario.node[23].nic.mac1609_4 ReceivedUnicastPackets 0
scalar RSUScenario.node[23].nic.mac1609_4 ReceivedBroadcasts 27160
scalar RSUScenario.node[23].nic.mac1609_4 SentPackets 942
scalar RSUScenario.node[23].nic.mac1609_4 SentAcknowledgements 0
scalar RSUScenario.node[23].nic.mac1609_4 SNIRLostPackets 7
scalar RSUScenario.node[23].nic.mac1609_4 RXTXLostPackets 0
scalar RSUScenario.node[23].nic.mac1609_4 TotalLostPackets 7
scalar RSUScenario.node[23].nic.mac1609_4 DroppedPacketsInMac 0
scalar RSUScenario.node[23].nic.mac1609_4 TooLittleTime 0
scalar RSUScenario.node[23].nic.mac1609_4 TimesIntoBackoff 943
scalar RSUScenario.node[23].nic.mac1609_4 SlotsBackoff 1491
scalar RSUScenario.node[23].nic.mac1609_4 NumInternalContention 0
scalar RSUScenario.node[23].nic.mac1609_4 totalBusyTime 5.621968294453
scalar RSUScenario.node[23].nic.mac1609_4 throughputMetricMac:last 135.83387029964
attr source throughputSignalMac
attr title "throughputMetricMac, last"
scalar RSUScenario.node[23].nic.mac1609_4 throughputMetricMac:count 27160
attr source throughputSignalMac
attr title "throughputMetricMac, count"
scalar RSUScenario.node[23].nic.mac1609_4 throughputMetricMac:sum 2169089.2051216
attr source throughputSignalMac
attr title "throughputMetricMac, sum"
scalar RSUScenario.node[23].nic.mac1609_4 throughputMetricMac:mean 79.863372795346
attr source throughputSignalMac
attr title "throughputMetricMac, mean"
scalar RSUScenario.node[23].veinsmobility startTime 106
scalar RSUScenario.node[23].veinsmobility totalTime 94
scalar RSUScenario.node[23].veinsmobility stopTime 200
scalar RSUScenario.node[23].veinsmobility minSpeed 0
scalar RSUScenario.node[23].veinsmobility maxSpeed 6.7403223326175
scalar RSUScenario.node[23].veinsmobility totalDistance 129.28623039961
scalar RSUScenario.node[23].veinsmobility totalCO2Emission 109.57458477886
scalar RSUScenario.node[6].appl generatedWSMs 1
scalar RSUScenario.node[6].appl receivedWSMs 46
scalar RSUScenario.node[6].appl generatedBSMs 1779
scalar RSUScenario.node[6].appl receivedBSMs 37286
scalar RSUScenario.node[6].appl generatedWSAs 3
scalar RSUScenario.node[6].appl receivedWSAs 94
scalar RSUScenario.node[6].nic.phy80211p busyTime 0.040354247191039
scalar RSUScenario.node[6].nic.phy80211p ncollisions 5
scalar RSUScenario.node[6].nic.mac1609_4 throughputMetricMac 187.17667266711
scalar RSUScenario.node[6].nic.mac1609_4 throughputMbps 0.16439091101742
scalar RSUScenario.node[6].nic.mac1609_4 throughputControlMbps 0
scalar RSUScenario.node[6].nic.mac1609_4 receivedFramesLowerMsg 37426
scalar RSUScenario.node[6].nic.mac1609_4 receivedBitsLowerPackets 0
scalar RSUScenario.node[6].nic.mac1609_4 receivedBitsLoserWsm 0
scalar RSUScenario.node[6].nic.mac1609_4 packetsNotForMe 0
scalar RSUScenario.node[6].nic.mac1609_4 receivedTotalBits 32869984
scalar RSUScenario.node[6].nic.mac1609_4 collisionsPktNonDecoded 0
scalar RSUScenario.node[6].nic.mac1609_4 chUtilizationSCH1 0.000233
scalar RSUScenario.node[6].nic.mac1609_4 chUtilizationSCH2 0
scalar RSUScenario.node[6].nic.mac1609_4 chUtilizationSCH3 0
scalar RSUScenario.node[6].nic.mac1609_4 chUtilizationSCH4 0
scalar RSUScenario.node[6].nic.mac1609_4 chUtilizationCCH 0.343542
scalar RSUScenario.node[6].nic.mac1609_4 chUtilizationHPPS 0
scalar RSUScenario.node[6].nic.mac1609_4 chUtilizationCRIT_SOL 0
scalar RSUScenario.node[6].nic.mac1609_4 ReceivedUnicastPackets 0
scalar RSUScenario.node[6].nic.mac1609_4 ReceivedBroadcasts 37426
scalar RSUScenario.node[6].nic.mac1609_4 SentPackets 1783
scalar RSUScenario.node[6].nic.mac1609_4 SentAcknowledgements 0
scalar RSUScenario.node[6].nic.mac1609_4 SNIRLostPackets 40
scalar RSUScenario.node[6].nic.mac1609_4 RXTXLostPackets 0
scalar RSUScenario.node[6].nic.mac1609_4 TotalLostPackets 40
scalar RSUScenario.node[6].nic.mac1609_4 DroppedPacketsInMac 0
scalar RSUScenario.node[6].nic.mac1609_4 TooLittleTime 0
scalar RSUScenario.node[6].nic.mac1609_4 TimesIntoBackoff 1784
scalar RSUScenario.node[6].nic.mac1609_4 SlotsBackoff 2681
scalar RSUScenario.node[6].nic.mac1609_4 NumInternalContention 0
scalar RSUScenario.node[6].nic.mac1609_4 totalBusyTime 9.45842876518
scalar RSUScenario.node[6].nic.mac1609_4 throughputMetricMac:last 187.17667266711
attr source throughputSignalMac
attr title "throughputMetricMac, last"
scalar RSUScenario.node[6].nic.mac1609_4 throughputMetricMac:count 37426
attr source throughputSignalMac
attr title "throughputMetricMac, count"
scalar RSUScenario.node[6].nic.mac1609_4 throughputMetricMac:sum 4642673.5349152
attr source throughputSignalMac
attr title "throughputMetricMac, sum"
scalar RSUScenario.node[6].nic.mac1609_4 throughputMetricMac:mean 124.04941845015
attr source throughputSignalMac
attr title "throughputMetricMac, mean"
scalar RSUScenario.node[6].veinsmobility startTime 22
scalar RSUScenario.node[6].veinsmobility totalTime 178
scalar RSUScenario.node[6].veinsmobility stopTime 200
scalar RSUScenario.node[6].veinsmobility minSpeed 0.98094131815177
scalar RSUScenario.node[6].veinsmobility maxSpeed 13.793682518269
scalar RSUScenario.node[6].veinsmobility totalDistance 337.56467839437
scalar RSUScenario.node[6].veinsmobility totalCO2Emission 239.94738452086
scalar RSUScenario.node[24].appl generatedWSMs 1
scalar RSUScenario.node[24].appl receivedWSMs 26
scalar RSUScenario.node[24].appl generatedBSMs 909
scalar RSUScenario.node[24].appl receivedBSMs 26424
scalar RSUScenario.node[24].appl generatedWSAs 2
scalar RSUScenario.node[24].appl receivedWSAs 59
scalar RSUScenario.node[24].nic.phy80211p busyTime 0.055873054945087
scalar RSUScenario.node[24].nic.phy80211p ncollisions 4
scalar RSUScenario.node[24].nic.mac1609_4 throughputMetricMac 132.57805845274
scalar RSUScenario.node[24].nic.mac1609_4 throughputMbps 0.11646175983981
scalar RSUScenario.node[24].nic.mac1609_4 throughputControlMbps 0
scalar RSUScenario.node[24].nic.mac1609_4 receivedFramesLowerMsg 26509
scalar RSUScenario.node[24].nic.mac1609_4 receivedBitsLowerPackets 0
scalar RSUScenario.node[24].nic.mac1609_4 receivedBitsLoserWsm 0
scalar RSUScenario.node[24].nic.mac1609_4 packetsNotForMe 0
scalar RSUScenario.node[24].nic.mac1609_4 receivedTotalBits 23286544
scalar RSUScenario.node[24].nic.mac1609_4 collisionsPktNonDecoded 0
scalar RSUScenario.node[24].nic.mac1609_4 chUtilizationSCH1 0.000233
scalar RSUScenario.node[24].nic.mac1609_4 chUtilizationSCH2 0
scalar RSUScenario.node[24].nic.mac1609_4 chUtilizationSCH3 0
scalar RSUScenario.node[24].nic.mac1609_4 chUtilizationSCH4 0
scalar RSUScenario.node[24].nic.mac1609_4 chUtilizationCCH 0.175567
scalar RSUScenario.node[24].nic.mac1609_4 chUtilizationHPPS 0
scalar RSUScenario.node[24].nic.mac1609_4 chUtilizationCRIT_SOL 0
scalar RSUScenario.node[24].nic.mac1609_4 ReceivedUnicastPackets 0
scalar RSUScenario.node[24].nic.mac1609_4 ReceivedBroadcasts 26509
scalar RSUScenario.node[24].nic.mac1609_4 SentPackets 912
scalar RSUScenario.node[24].nic.mac1609_4 SentAcknowledgements 0
scalar RSUScenario.node[24].nic.mac1609_4 SNIRLostPackets 8
scalar RSUScenario.node[24].nic.mac1609_4 RXTXLostPackets 1
scalar RSUScenario.node[24].nic.mac1609_4 TotalLostPackets 9
scalar RSUScenario.node[24].nic.mac1609_4 DroppedPacketsInMac 0
scalar RSUScenario.node[24].nic.mac1609_4 TooLittleTime 0
scalar RSUScenario.node[24].nic.mac1609_4 TimesIntoBackoff 913
scalar RSUScenario.node[24].nic.mac1609_4 SlotsBackoff 1371
scalar RSUScenario.node[24].nic.mac1609_4 NumInternalContention 0
scalar RSUScenario.node[24].nic.mac1609_4 totalBusyTime 5.566039693006
scalar RSUScenario.node[24].nic.mac1609_4 throughputMetricMac:last 132.57805845274
attr source throughputSignalMac
attr title "throughputMetricMac, last"
scalar RSUScenario.node[24].nic.mac1609_4 throughputMetricMac:count 26509
attr source throughputSignalMac
attr title "throughputMetricMac, count"
scalar RSUScenario.node[24].nic.mac1609_4 throughputMetricMac:sum 2054913.0025149
attr source throughputSignalMac
attr title "throughputMetricMac, sum"
scalar RSUScenario.node[24].nic.mac1609_4 throughputMetricMac:mean 77.517560168807
attr source throughputSignalMac
attr title "throughputMetricMac, mean"
scalar RSUScenario.node[24].veinsmobility startTime 109
scalar RSUScenario.node[24].veinsmobility totalTime 91
scalar RSUScenario.node[24].veinsmobility stopTime 200
scalar RSUScenario.node[24].veinsmobility minSpeed 0
scalar RSUScenario.node[24].veinsmobility maxSpeed 5.9430106001603
scalar RSUScenario.node[24].veinsmobility totalDistance 121.39510846041
scalar RSUScenario.node[24].veinsmobility totalCO2Emission 104.83172222377
scalar RSUScenario.node[25].appl generatedWSMs 1
scalar RSUScenario.node[25].appl receivedWSMs 11
scalar RSUScenario.node[25].appl generatedBSMs 599
scalar RSUScenario.node[25].appl receivedBSMs 19245
scalar RSUScenario.node[25].appl generatedWSAs 3
scalar RSUScenario.node[25].appl receivedWSAs 33
scalar RSUScenario.node[25].nic.phy80211p busyTime 0.061679066666692
scalar RSUScenario.node[25].nic.phy80211p ncollisions 1
scalar RSUScenario.node[25].nic.mac1609_4 throughputMetricMac 96.469054639334
scalar RSUScenario.node[25].nic.mac1609_4 throughputMbps 0.084773058232885
scalar RSUScenario.node[25].nic.mac1609_4 throughputControlMbps 0
scalar RSUScenario.node[25].nic.mac1609_4 receivedFramesLowerMsg 19289
scalar RSUScenario.node[25].nic.mac1609_4 receivedBitsLowerPackets 0
scalar RSUScenario.node[25].nic.mac1609_4 receivedBitsLoserWsm 0
scalar RSUScenario.node[25].nic.mac1609_4 packetsNotForMe 0
scalar RSUScenario.node[25].nic.mac1609_4 receivedTotalBits 16950384
scalar RSUScenario.node[25].nic.mac1609_4 collisionsPktNonDecoded 0
scalar RSUScenario.node[25].nic.mac1609_4 chUtilizationSCH1 0
scalar RSUScenario.node[25].nic.mac1609_4 chUtilizationSCH2 0.000233
scalar RSUScenario.node[25].nic.mac1609_4 chUtilizationSCH3 0
scalar RSUScenario.node[25].nic.mac1609_4 chUtilizationSCH4 0
scalar RSUScenario.node[25].nic.mac1609_4 chUtilizationCCH 0.115802
scalar RSUScenario.node[25].nic.mac1609_4 chUtilizationHPPS 0
scalar RSUScenario.node[25].nic.mac1609_4 chUtilizationCRIT_SOL 0
scalar RSUScenario.node[25].nic.mac1609_4 ReceivedUnicastPackets 0
scalar RSUScenario.node[25].nic.mac1609_4 ReceivedBroadcasts 19289
scalar RSUScenario.node[25].nic.mac1609_4 SentPackets 603
scalar RSUScenario.node[25].nic.mac1609_4 SentAcknowledgements 0
scalar RSUScenario.node[25].nic.mac1609_4 SNIRLostPackets 5
scalar RSUScenario.node[25].nic.mac1609_4 RXTXLostPackets 0
scalar RSUScenario.node[25].nic.mac1609_4 TotalLostPackets 5
scalar RSUScenario.node[25].nic.mac1609_4 DroppedPacketsInMac 0
scalar RSUScenario.node[25].nic.mac1609_4 TooLittleTime 0
scalar RSUScenario.node[25].nic.mac1609_4 TimesIntoBackoff 603
scalar RSUScenario.node[25].nic.mac1609_4 SlotsBackoff 922
scalar RSUScenario.node[25].nic.mac1609_4 NumInternalContention 0
scalar RSUScenario.node[25].nic.mac1609_4 totalBusyTime 3.917643195166
scalar RSUScenario.node[25].nic.mac1609_4 throughputMetricMac:last 96.469054639334
attr source throughputSignalMac
attr title "throughputMetricMac, last"
scalar RSUScenario.node[25].nic.mac1609_4 throughputMetricMac:count 19289
attr source throughputSignalMac
attr title "throughputMetricMac, count"
scalar RSUScenario.node[25].nic.mac1609_4 throughputMetricMac:sum 1032784.7316256
attr source throughputSignalMac
attr title "throughputMetricMac, sum"
scalar RSUScenario.node[25].nic.mac1609_4 throughputMetricMac:mean 53.542678813087
attr source throughputSignalMac
attr title "throughputMetricMac, mean"
scalar RSUScenario.node[25].veinsmobility startTime 140
scalar RSUScenario.node[25].veinsmobility totalTime 60
scalar RSUScenario.node[25].veinsmobility stopTime 200
scalar RSUScenario.node[25].veinsmobility minSpeed 0.68042719191989
scalar RSUScenario.node[25].veinsmobility maxSpeed 5.4218828293063
scalar RSUScenario.node[25].veinsmobility totalDistance 114.01584884393
scalar RSUScenario.node[25].veinsmobility totalCO2Emission 72.107433417441
scalar RSUScenario.node[26].appl generatedWSMs 1
scalar RSUScenario.node[26].appl receivedWSMs 11
scalar RSUScenario.node[26].appl generatedBSMs 569
scalar RSUScenario.node[26].appl receivedBSMs 18546
scalar RSUScenario.node[26].appl generatedWSAs 3
scalar RSUScenario.node[26].appl receivedWSAs 33
scalar RSUScenario.node[26].nic.phy80211p busyTime 0.062570807017568
scalar RSUScenario.node[26].nic.phy80211p ncollisions 1
scalar RSUScenario.node[26].nic.mac1609_4 throughputMetricMac 92.973182942317
scalar RSUScenario.node[26].nic.mac1609_4 throughputMbps 0.081696691139513
scalar RSUScenario.node[26].nic.mac1609_4 throughputControlMbps 0
scalar RSUScenario.node[26].nic.mac1609_4 receivedFramesLowerMsg 18590
scalar RSUScenario.node[26].nic.mac1609_4 receivedBitsLowerPackets 0
scalar RSUScenario.node[26].nic.mac1609_4 receivedBitsLoserWsm 0
scalar RSUScenario.node[26].nic.mac1609_4 packetsNotForMe 0
scalar RSUScenario.node[26].nic.mac1609_4 receivedTotalBits 16335264
scalar RSUScenario.node[26].nic.mac1609_4 collisionsPktNonDecoded 0
scalar RSUScenario.node[26].nic.mac1609_4 chUtilizationSCH1 0.000233
scalar RSUScenario.node[26].nic.mac1609_4 chUtilizationSCH2 0
scalar RSUScenario.node[26].nic.mac1609_4 chUtilizationSCH3 0
scalar RSUScenario.node[26].nic.mac1609_4 chUtilizationSCH4 0
scalar RSUScenario.node[26].nic.mac1609_4 chUtilizationCCH 0.110012
scalar RSUScenario.node[26].nic.mac1609_4 chUtilizationHPPS 0
scalar RSUScenario.node[26].nic.mac1609_4 chUtilizationCRIT_SOL 0
scalar RSUScenario.node[26].nic.mac1609_4 ReceivedUnicastPackets 0
scalar RSUScenario.node[26].nic.mac1609_4 ReceivedBroadcasts 18590
scalar RSUScenario.node[26].nic.mac1609_4 SentPackets 573
scalar RSUScenario.node[26].nic.mac1609_4 SentAcknowledgements 0
scalar RSUScenario.node[26].nic.mac1609_4 SNIRLostPackets 5
scalar RSUScenario.node[26].nic.mac1609_4 RXTXLostPackets 0
scalar RSUScenario.node[26].nic.mac1609_4 TotalLostPackets 5
scalar RSUScenario.node[26].nic.mac1609_4 DroppedPacketsInMac 0
scalar RSUScenario.node[26].nic.mac1609_4 TooLittleTime 0
scalar RSUScenario.node[26].nic.mac1609_4 TimesIntoBackoff 1142
scalar RSUScenario.node[26].nic.mac1609_4 SlotsBackoff 1731
scalar RSUScenario.node[26].nic.mac1609_4 NumInternalContention 0
scalar RSUScenario.node[26].nic.mac1609_4 totalBusyTime 3.725299167048
scalar RSUScenario.node[26].nic.mac1609_4 throughputMetricMac:last 92.973182942317
attr source throughputSignalMac
attr title "throughputMetricMac, last"
scalar RSUScenario.node[26].nic.mac1609_4 throughputMetricMac:count 18590
attr source throughputSignalMac
attr title "throughputMetricMac, count"
scalar RSUScenario.node[26].nic.mac1609_4 throughputMetricMac:sum 954891.04908993
attr source throughputSignalMac
attr title "throughputMetricMac, sum"
scalar RSUScenario.node[26].nic.mac1609_4 throughputMetricMac:mean 51.36584449112
attr source throughputSignalMac
attr title "throughputMetricMac, mean"
scalar RSUScenario.node[26].veinsmobility startTime 143
scalar RSUScenario.node[26].veinsmobility totalTime 57
scalar RSUScenario.node[26].veinsmobility stopTime 200
scalar RSUScenario.node[26].veinsmobility minSpeed 0.81150968343936
scalar RSUScenario.node[26].veinsmobility maxSpeed 5.3908081853904
scalar RSUScenario.node[26].veinsmobility totalDistance 106.65007352073
scalar RSUScenario.node[26].veinsmobility totalCO2Emission 66.485420994761
scalar RSUScenario.node[27].appl generatedWSMs 1
scalar RSUScenario.node[27].appl receivedWSMs 11
scalar RSUScenario.node[27].appl generatedBSMs 549
scalar RSUScenario.node[27].appl receivedBSMs 18057
scalar RSUScenario.node[27].appl generatedWSAs 3
scalar RSUScenario.node[27].appl receivedWSAs 33
scalar RSUScenario.node[27].nic.phy80211p busyTime 0.063128581818205
scalar RSUScenario.node[27].nic.phy80211p ncollisions 1
scalar RSUScenario.node[27].nic.mac1609_4 throughputMetricMac 90.527573128569
scalar RSUScenario.node[27].nic.mac1609_4 throughputMbps 0.079544554503416
scalar RSUScenario.node[27].nic.mac1609_4 throughputControlMbps 0
scalar RSUScenario.node[27].nic.mac1609_4 receivedFramesLowerMsg 18101
scalar RSUScenario.node[27].nic.mac1609_4 receivedBitsLowerPackets 0
scalar RSUScenario.node[27].nic.mac1609_4 receivedBitsLoserWsm 0
scalar RSUScenario.node[27].nic.mac1609_4 packetsNotForMe 0
scalar RSUScenario.node[27].nic.mac1609_4 receivedTotalBits 15904944
scalar RSUScenario.node[27].nic.mac1609_4 collisionsPktNonDecoded 0
scalar RSUScenario.node[27].nic.mac1609_4 chUtilizationSCH1 0
scalar RSUScenario.node[27].nic.mac1609_4 chUtilizationSCH2 0.000233
scalar RSUScenario.node[27].nic.mac1609_4 chUtilizationSCH3 0
scalar RSUScenario.node[27].nic.mac1609_4 chUtilizationSCH4 0
scalar RSUScenario.node[27].nic.mac1609_4 chUtilizationCCH 0.106152
scalar RSUScenario.node[27].nic.mac1609_4 chUtilizationHPPS 0
scalar RSUScenario.node[27].nic.mac1609_4 chUtilizationCRIT_SOL 0
scalar RSUScenario.node[27].nic.mac1609_4 ReceivedUnicastPackets 0
scalar RSUScenario.node[27].nic.mac1609_4 ReceivedBroadcasts 18101
scalar RSUScenario.node[27].nic.mac1609_4 SentPackets 553
scalar RSUScenario.node[27].nic.mac1609_4 SentAcknowledgements 0
scalar RSUScenario.node[27].nic.mac1609_4 SNIRLostPackets 2
scalar RSUScenario.node[27].nic.mac1609_4 RXTXLostPackets 3
scalar RSUScenario.node[27].nic.mac1609_4 TotalLostPackets 5
scalar RSUScenario.node[27].nic.mac1609_4 DroppedPacketsInMac 0
scalar RSUScenario.node[27].nic.mac1609_4 TooLittleTime 0
scalar RSUScenario.node[27].nic.mac1609_4 TimesIntoBackoff 553
scalar RSUScenario.node[27].nic.mac1609_4 SlotsBackoff 796
scalar RSUScenario.node[27].nic.mac1609_4 NumInternalContention 0
scalar RSUScenario.node[27].nic.mac1609_4 totalBusyTime 3.716067657211
scalar RSUScenario.node[27].nic.mac1609_4 throughputMetricMac:last 90.527573128569
attr source throughputSignalMac
attr title "throughputMetricMac, last"
scalar RSUScenario.node[27].nic.mac1609_4 throughputMetricMac:count 18101
attr source throughputSignalMac
attr title "throughputMetricMac, count"
scalar RSUScenario.node[27].nic.mac1609_4 throughputMetricMac:sum 902503.63015594
attr source throughputSignalMac
attr title "throughputMetricMac, sum"
scalar RSUScenario.node[27].nic.mac1609_4 throughputMetricMac:mean 49.859324355336
attr source throughputSignalMac
attr title "throughputMetricMac, mean"
scalar RSUScenario.node[27].veinsmobility startTime 145
scalar RSUScenario.node[27].veinsmobility totalTime 55
scalar RSUScenario.node[27].veinsmobility stopTime 200
scalar RSUScenario.node[27].veinsmobility minSpeed 0.86978568212016
scalar RSUScenario.node[27].veinsmobility maxSpeed 5.5043736067239
scalar RSUScenario.node[27].veinsmobility totalDistance 99.735775758455
scalar RSUScenario.node[27].veinsmobility totalCO2Emission 64.394367193441
scalar RSUScenario.node[28].appl generatedWSMs 1
scalar RSUScenario.node[28].appl receivedWSMs 11
scalar RSUScenario.node[28].appl generatedBSMs 529
scalar RSUScenario.node[28].appl receivedBSMs 17558
scalar RSUScenario.node[28].appl generatedWSAs 3
scalar RSUScenario.node[28].appl receivedWSAs 33
scalar RSUScenario.node[28].nic.phy80211p busyTime 0.063713962264173
scalar RSUScenario.node[28].nic.phy80211p ncollisions 1
scalar RSUScenario.node[28].nic.mac1609_4 throughputMetricMac 88.031950844101
scalar RSUScenario.node[28].nic.mac1609_4 throughputMbps 0.077348406893081
scalar RSUScenario.node[28].nic.mac1609_4 throughputControlMbps 0
scalar RSUScenario.node[28].nic.mac1609_4 receivedFramesLowerMsg 17602
scalar RSUScenario.node[28].nic.mac1609_4 receivedBitsLowerPackets 0
scalar RSUScenario.node[28].nic.mac1609_4 receivedBitsLoserWsm 0
scalar RSUScenario.node[28].nic.mac1609_4 packetsNotForMe 0
scalar RSUScenario.node[28].nic.mac1609_4 receivedTotalBits 15465824
scalar RSUScenario.node[28].nic.mac1609_4 collisionsPktNonDecoded 0
scalar RSUScenario.node[28].nic.mac1609_4 chUtilizationSCH1 0.000233
scalar RSUScenario.node[28].nic.mac1609_4 chUtilizationSCH2 0
scalar RSUScenario.node[28].nic.mac1609_4 chUtilizationSCH3 0
scalar RSUScenario.node[28].nic.mac1609_4 chUtilizationSCH4 0
scalar RSUScenario.node[28].nic.mac1609_4 chUtilizationCCH 0.102292
scalar RSUScenario.node[28].nic.mac1609_4 chUtilizationHPPS 0
scalar RSUScenario.node[28].nic.mac1609_4 chUtilizationCRIT_SOL 0
scalar RSUScenario.node[28].nic.mac1609_4 ReceivedUnicastPackets 0
scalar RSUScenario.node[28].nic.mac1609_4 ReceivedBroadcasts 17602
scalar RSUScenario.node[28].nic.mac1609_4 SentPackets 533
scalar RSUScenario.node[28].nic.mac1609_4 SentAcknowledgements 0
scalar RSUScenario.node[28].nic.mac1609_4 SNIRLostPackets 5
scalar RSUScenario.node[28].nic.mac1609_4 RXTXLostPackets 0
scalar RSUScenario.node[28].nic.mac1609_4 TotalLostPackets 5
scalar RSUScenario.node[28].nic.mac1609_4 DroppedPacketsInMac 0
scalar RSUScenario.node[28].nic.mac1609_4 TooLittleTime 0
scalar RSUScenario.node[28].nic.mac1609_4 TimesIntoBackoff 533
scalar RSUScenario.node[28].nic.mac1609_4 SlotsBackoff 761
scalar RSUScenario.node[28].nic.mac1609_4 NumInternalContention 0
scalar RSUScenario.node[28].nic.mac1609_4 totalBusyTime 3.529357282191
scalar RSUScenario.node[28].nic.mac1609_4 throughputMetricMac:last 88.031950844101
attr source throughputSignalMac
attr title "throughputMetricMac, last"
scalar RSUScenario.node[28].nic.mac1609_4 throughputMetricMac:count 17602
attr source throughputSignalMac
attr title "throughputMetricMac, count"
scalar RSUScenario.node[28].nic.mac1609_4 throughputMetricMac:sum 850654.75441243
attr source throughputSignalMac
attr title "throughputMetricMac, sum"
scalar RSUScenario.node[28].nic.mac1609_4 throughputMetricMac:mean 48.327164777436
attr source throughputSignalMac
attr title "throughputMetricMac, mean"
scalar RSUScenario.node[28].veinsmobility startTime 147
scalar RSUScenario.node[28].veinsmobility totalTime 53
scalar RSUScenario.node[28].veinsmobility stopTime 200
scalar RSUScenario.node[28].veinsmobility minSpeed 0.91610041885955
scalar RSUScenario.node[28].veinsmobility maxSpeed 5.4313335745791
scalar RSUScenario.node[28].veinsmobility totalDistance 93.089265380118
scalar RSUScenario.node[28].veinsmobility totalCO2Emission 62.418840920734
scalar RSUScenario.node[29].appl generatedWSMs 1
scalar RSUScenario.node[29].appl receivedWSMs 11
scalar RSUScenario.node[29].appl generatedBSMs 499
scalar RSUScenario.node[29].appl receivedBSMs 16779
scalar RSUScenario.node[29].appl generatedWSAs 3
scalar RSUScenario.node[29].appl receivedWSAs 33
scalar RSUScenario.node[29].nic.phy80211p busyTime 0.064545440000021
scalar RSUScenario.node[29].nic.phy80211p ncollisions 1
scalar RSUScenario.node[29].nic.mac1609_4 throughputMetricMac 84.135979380608
scalar RSUScenario.node[29].nic.mac1609_4 throughputMbps 0.073919952005205
scalar RSUScenario.node[29].nic.mac1609_4 throughputControlMbps 0
scalar RSUScenario.node[29].nic.mac1609_4 receivedFramesLowerMsg 16823
scalar RSUScenario.node[29].nic.mac1609_4 receivedBitsLowerPackets 0
scalar RSUScenario.node[29].nic.mac1609_4 receivedBitsLoserWsm 0
scalar RSUScenario.node[29].nic.mac1609_4 packetsNotForMe 0
scalar RSUScenario.node[29].nic.mac1609_4 receivedTotalBits 14780304
scalar RSUScenario.node[29].nic.mac1609_4 collisionsPktNonDecoded 0
scalar RSUScenario.node[29].nic.mac1609_4 chUtilizationSCH1 0.000233
scalar RSUScenario.node[29].nic.mac1609_4 chUtilizationSCH2 0
scalar RSUScenario.node[29].nic.mac1609_4 chUtilizationSCH3 0
scalar RSUScenario.node[29].nic.mac1609_4 chUtilizationSCH4 0
scalar RSUScenario.node[29].nic.mac1609_4 chUtilizationCCH 0.096502
scalar RSUScenario.node[29].nic.mac1609_4 chUtilizationHPPS 0
scalar RSUScenario.node[29].nic.mac1609_4 chUtilizationCRIT_SOL 0
scalar RSUScenario.node[29].nic.mac1609_4 ReceivedUnicastPackets 0
scalar RSUScenario.node[29].nic.mac1609_4 ReceivedBroadcasts 16823
scalar RSUScenario.node[29].nic.mac1609_4 SentPackets 503
scalar RSUScenario.node[29].nic.mac1609_4 SentAcknowledgements 0
scalar RSUScenario.node[29].nic.mac1609_4 SNIRLostPackets 5
scalar RSUScenario.node[29].nic.mac1609_4 RXTXLostPackets 0
scalar RSUScenario.node[29].nic.mac1609_4 TotalLostPackets 5
scalar RSUScenario.node[29].nic.mac1609_4 DroppedPacketsInMac 0
scalar RSUScenario.node[29].nic.mac1609_4 TooLittleTime 0
scalar RSUScenario.node[29].nic.mac1609_4 TimesIntoBackoff 503
scalar RSUScenario.node[29].nic.mac1609_4 SlotsBackoff 735
scalar RSUScenario.node[29].nic.mac1609_4 NumInternalContention 0
scalar RSUScenario.node[29].nic.mac1609_4 totalBusyTime 3.408809122127
scalar RSUScenario.node[29].nic.mac1609_4 throughputMetricMac:last 84.135979380608
attr source throughputSignalMac
attr title "throughputMetricMac, last"
scalar RSUScenario.node[29].nic.mac1609_4 throughputMetricMac:count 16823
attr source throughputSignalMac
attr title "throughputMetricMac, count"
scalar RSUScenario.node[29].nic.mac1609_4 throughputMetricMac:sum 773154.51417218
attr source throughputSignalMac
attr title "throughputMetricMac, sum"
scalar RSUScenario.node[29].nic.mac1609_4 throughputMetricMac:mean 45.958183092919
attr source throughputSignalMac
attr title "throughputMetricMac, mean"
scalar RSUScenario.node[29].veinsmobility startTime 150
scalar RSUScenario.node[29].veinsmobility totalTime 50
scalar RSUScenario.node[29].veinsmobility stopTime 200
scalar RSUScenario.node[29].veinsmobility minSpeed 0.95125707440426
scalar RSUScenario.node[29].veinsmobility maxSpeed 5.1060666665931
scalar RSUScenario.node[29].veinsmobility totalDistance 85.4720273202
scalar RSUScenario.node[29].veinsmobility totalCO2Emission 56.58691607496
scalar RSUScenario.node[30].appl generatedWSMs 3
scalar RSUScenario.node[30].appl receivedWSMs 9
scalar RSUScenario.node[30].appl generatedBSMs 479
scalar RSUScenario.node[30].appl receivedBSMs 16270
scalar RSUScenario.node[30].appl generatedWSAs 3
scalar RSUScenario.node[30].appl receivedWSAs 33
scalar RSUScenario.node[30].nic.phy80211p busyTime 0.065189166666686
scalar RSUScenario.node[30].nic.phy80211p ncollisions 1
scalar RSUScenario.node[30].nic.mac1609_4 throughputMetricMac 81.580342129688
scalar RSUScenario.node[30].nic.mac1609_4 throughputMbps 0.07166875066571
scalar RSUScenario.node[30].nic.mac1609_4 throughputControlMbps 0
scalar RSUScenario.node[30].nic.mac1609_4 receivedFramesLowerMsg 16312
scalar RSUScenario.node[30].nic.mac1609_4 receivedBitsLowerPackets 0
scalar RSUScenario.node[30].nic.mac1609_4 receivedBitsLoserWsm 0
scalar RSUScenario.node[30].nic.mac1609_4 packetsNotForMe 0
scalar RSUScenario.node[30].nic.mac1609_4 receivedTotalBits 14330176
scalar RSUScenario.node[30].nic.mac1609_4 collisionsPktNonDecoded 0
scalar RSUScenario.node[30].nic.mac1609_4 chUtilizationSCH1 0.000466
scalar RSUScenario.node[30].nic.mac1609_4 chUtilizationSCH2 0.000233
scalar RSUScenario.node[30].nic.mac1609_4 chUtilizationSCH3 0
scalar RSUScenario.node[30].nic.mac1609_4 chUtilizationSCH4 0
scalar RSUScenario.node[30].nic.mac1609_4 chUtilizationCCH 0.092642
scalar RSUScenario.node[30].nic.mac1609_4 chUtilizationHPPS 0
scalar RSUScenario.node[30].nic.mac1609_4 chUtilizationCRIT_SOL 0
scalar RSUScenario.node[30].nic.mac1609_4 ReceivedUnicastPackets 0
scalar RSUScenario.node[30].nic.mac1609_4 ReceivedBroadcasts 16312
scalar RSUScenario.node[30].nic.mac1609_4 SentPackets 485
scalar RSUScenario.node[30].nic.mac1609_4 SentAcknowledgements 0
scalar RSUScenario.node[30].nic.mac1609_4 SNIRLostPackets 5
scalar RSUScenario.node[30].nic.mac1609_4 RXTXLostPackets 0
scalar RSUScenario.node[30].nic.mac1609_4 TotalLostPackets 5
scalar RSUScenario.node[30].nic.mac1609_4 DroppedPacketsInMac 0
scalar RSUScenario.node[30].nic.mac1609_4 TooLittleTime 0
scalar RSUScenario.node[30].nic.mac1609_4 TimesIntoBackoff 485
scalar RSUScenario.node[30].nic.mac1609_4 SlotsBackoff 678
scalar RSUScenario.node[30].nic.mac1609_4 NumInternalContention 0
scalar RSUScenario.node[30].nic.mac1609_4 totalBusyTime 3.314161609304
scalar RSUScenario.node[30].nic.mac1609_4 throughputMetricMac:last 81.580342129688
attr source throughputSignalMac
attr title "throughputMetricMac, last"
scalar RSUScenario.node[30].nic.mac1609_4 throughputMetricMac:count 16312
attr source throughputSignalMac
attr title "throughputMetricMac, count"
scalar RSUScenario.node[30].nic.mac1609_4 throughputMetricMac:sum 724244.0457895
attr source throughputSignalMac
attr title "throughputMetricMac, sum"
scalar RSUScenario.node[30].nic.mac1609_4 throughputMetricMac:mean 44.399463326968
attr source throughputSignalMac
attr title "throughputMetricMac, mean"
scalar RSUScenario.node[30].veinsmobility startTime 152
scalar RSUScenario.node[30].veinsmobility totalTime 48
scalar RSUScenario.node[30].veinsmobility stopTime 200
scalar RSUScenario.node[30].veinsmobility minSpeed 0
scalar RSUScenario.node[30].veinsmobility maxSpeed 9.8430462658581
scalar RSUScenario.node[30].veinsmobility totalDistance 77.597869507844
scalar RSUScenario.node[30].veinsmobility totalCO2Emission 63.515641823331
scalar RSUScenario.node[31].appl generatedWSMs 1
scalar RSUScenario.node[31].appl receivedWSMs 12
scalar RSUScenario.node[31].appl generatedBSMs 459
scalar RSUScenario.node[31].appl receivedBSMs 15721
scalar RSUScenario.node[31].appl generatedWSAs 3
scalar RSUScenario.node[31].appl receivedWSAs 33
scalar RSUScenario.node[31].nic.phy80211p busyTime 0.06574208695654
scalar RSUScenario.node[31].nic.phy80211p ncollisions 0
scalar RSUScenario.node[31].nic.mac1609_4 throughputMetricMac 78.849661230004
scalar RSUScenario.node[31].nic.mac1609_4 throughputMbps 0.069269112312018
scalar RSUScenario.node[31].nic.mac1609_4 throughputControlMbps 0
scalar RSUScenario.node[31].nic.mac1609_4 receivedFramesLowerMsg 15766
scalar RSUScenario.node[31].nic.mac1609_4 receivedBitsLowerPackets 0
scalar RSUScenario.node[31].nic.mac1609_4 receivedBitsLoserWsm 0
scalar RSUScenario.node[31].nic.mac1609_4 packetsNotForMe 0
scalar RSUScenario.node[31].nic.mac1609_4 receivedTotalBits 13850368
scalar RSUScenario.node[31].nic.mac1609_4 collisionsPktNonDecoded 0
scalar RSUScenario.node[31].nic.mac1609_4 chUtilizationSCH1 0
scalar RSUScenario.node[31].nic.mac1609_4 chUtilizationSCH2 0.000233
scalar RSUScenario.node[31].nic.mac1609_4 chUtilizationSCH3 0
scalar RSUScenario.node[31].nic.mac1609_4 chUtilizationSCH4 0
scalar RSUScenario.node[31].nic.mac1609_4 chUtilizationCCH 0.088782
scalar RSUScenario.node[31].nic.mac1609_4 chUtilizationHPPS 0
scalar RSUScenario.node[31].nic.mac1609_4 chUtilizationCRIT_SOL 0
scalar RSUScenario.node[31].nic.mac1609_4 ReceivedUnicastPackets 0
scalar RSUScenario.node[31].nic.mac1609_4 ReceivedBroadcasts 15766
scalar RSUScenario.node[31].nic.mac1609_4 SentPackets 463
[...]
scalar RSUScenario.node[11].nic.mac1609_4 DroppedPacketsInMac 0
scalar RSUScenario.node[11].nic.mac1609_4 TooLittleTime 0
scalar RSUScenario.node[11].nic.mac1609_4 TimesIntoBackoff 1545
scalar RSUScenario.node[11].nic.mac1609_4 SlotsBackoff 2338
scalar RSUScenario.node[11].nic.mac1609_4 NumInternalContention 0
scalar RSUScenario.node[11].nic.mac1609_4 totalBusyTime 7.563742699151
scalar RSUScenario.node[11].nic.mac1609_4 throughputMetricMac:last 178.14528372467
attr source throughputSignalMac
attr title "throughputMetricMac, last"
scalar RSUScenario.node[11].nic.mac1609_4 throughputMetricMac:count 35619
attr source throughputSignalMac
attr title "throughputMetricMac, count"
scalar RSUScenario.node[11].nic.mac1609_4 throughputMetricMac:sum 4069574.9773603
attr source throughputSignalMac
attr title "throughputMetricMac, sum"
scalar RSUScenario.node[11].nic.mac1609_4 throughputMetricMac:mean 114.25292617312
attr source throughputSignalMac
attr title "throughputMetricMac, mean"
scalar RSUScenario.node[11].veinsmobility startTime 46
scalar RSUScenario.node[11].veinsmobility totalTime 154
scalar RSUScenario.node[11].veinsmobility stopTime 200
scalar RSUScenario.node[11].veinsmobility minSpeed 0
scalar RSUScenario.node[11].veinsmobility maxSpeed 8.7358561983896
scalar RSUScenario.node[11].veinsmobility totalDistance 227.74674072709
scalar RSUScenario.node[11].veinsmobility totalCO2Emission 189.94111468036
scalar RSUScenario.node[12].appl generatedWSMs 3
scalar RSUScenario.node[12].appl receivedWSMs 35
scalar RSUScenario.node[12].appl generatedBSMs 1499
scalar RSUScenario.node[12].appl receivedBSMs 35082
scalar RSUScenario.node[12].appl generatedWSAs 3
scalar RSUScenario.node[12].appl receivedWSAs 73
scalar RSUScenario.node[12].nic.phy80211p busyTime 0.045014346666697
scalar RSUScenario.node[12].nic.phy80211p ncollisions 5
scalar RSUScenario.node[12].nic.mac1609_4 throughputMetricMac 175.99388447949
scalar RSUScenario.node[12].nic.mac1609_4 throughputMbps 0.15462175528988
scalar RSUScenario.node[12].nic.mac1609_4 throughputControlMbps 0
scalar RSUScenario.node[12].nic.mac1609_4 receivedFramesLowerMsg 35190
scalar RSUScenario.node[12].nic.mac1609_4 receivedBitsLowerPackets 0
scalar RSUScenario.node[12].nic.mac1609_4 receivedBitsLoserWsm 0
scalar RSUScenario.node[12].nic.mac1609_4 packetsNotForMe 0
scalar RSUScenario.node[12].nic.mac1609_4 receivedTotalBits 30916640
scalar RSUScenario.node[12].nic.mac1609_4 collisionsPktNonDecoded 0
scalar RSUScenario.node[12].nic.mac1609_4 chUtilizationSCH1 0
scalar RSUScenario.node[12].nic.mac1609_4 chUtilizationSCH2 0
scalar RSUScenario.node[12].nic.mac1609_4 chUtilizationSCH3 0.000699
scalar RSUScenario.node[12].nic.mac1609_4 chUtilizationSCH4 0
scalar RSUScenario.node[12].nic.mac1609_4 chUtilizationCCH 0.289502
scalar RSUScenario.node[12].nic.mac1609_4 chUtilizationHPPS 0
scalar RSUScenario.node[12].nic.mac1609_4 chUtilizationCRIT_SOL 0
scalar RSUScenario.node[12].nic.mac1609_4 ReceivedUnicastPackets 0
scalar RSUScenario.node[12].nic.mac1609_4 ReceivedBroadcasts 35190
scalar RSUScenario.node[12].nic.mac1609_4 SentPackets 1505
scalar RSUScenario.node[12].nic.mac1609_4 SentAcknowledgements 0
scalar RSUScenario.node[12].nic.mac1609_4 SNIRLostPackets 20
scalar RSUScenario.node[12].nic.mac1609_4 RXTXLostPackets 0
scalar RSUScenario.node[12].nic.mac1609_4 TotalLostPackets 20
scalar RSUScenario.node[12].nic.mac1609_4 DroppedPacketsInMac 0
scalar RSUScenario.node[12].nic.mac1609_4 TooLittleTime 0
scalar RSUScenario.node[12].nic.mac1609_4 TimesIntoBackoff 1505
scalar RSUScenario.node[12].nic.mac1609_4 SlotsBackoff 2197
scalar RSUScenario.node[12].nic.mac1609_4 NumInternalContention 0
scalar RSUScenario.node[12].nic.mac1609_4 totalBusyTime 7.316979375911
scalar RSUScenario.node[12].nic.mac1609_4 throughputMetricMac:last 175.99388447949
attr source throughputSignalMac
attr title "throughputMetricMac, last"
scalar RSUScenario.node[12].nic.mac1609_4 throughputMetricMac:count 35190
attr source throughputSignalMac
attr title "throughputMetricMac, count"
scalar RSUScenario.node[12].nic.mac1609_4 throughputMetricMac:sum 3947026.901125
attr source throughputSignalMac
attr title "throughputMetricMac, sum"
scalar RSUScenario.node[12].nic.mac1609_4 throughputMetricMac:mean 112.16331063157
attr source throughputSignalMac
attr title "throughputMetricMac, mean"
scalar RSUScenario.node[12].veinsmobility startTime 50
scalar RSUScenario.node[12].veinsmobility totalTime 150
scalar RSUScenario.node[12].veinsmobility stopTime 200
scalar RSUScenario.node[12].veinsmobility minSpeed 0
scalar RSUScenario.node[12].veinsmobility maxSpeed 7.4105448994872
scalar RSUScenario.node[12].veinsmobility totalDistance 218.62111679437
scalar RSUScenario.node[12].veinsmobility totalCO2Emission 179.95103440512
scalar RSUScenario.node[13].appl generatedWSMs 1
scalar RSUScenario.node[13].appl receivedWSMs 25
scalar RSUScenario.node[13].appl generatedBSMs 1169
scalar RSUScenario.node[13].appl receivedBSMs 31123
scalar RSUScenario.node[13].appl generatedWSAs 3
scalar RSUScenario.node[13].appl receivedWSAs 58
scalar RSUScenario.node[13].nic.phy80211p busyTime 0.051185846153878
scalar RSUScenario.node[13].nic.phy80211p ncollisions 5
scalar RSUScenario.node[13].nic.mac1609_4 throughputMetricMac 156.06891611922
scalar RSUScenario.node[13].nic.mac1609_4 throughputMbps 0.13713659530433
scalar RSUScenario.node[13].nic.mac1609_4 throughputControlMbps 0
scalar RSUScenario.node[13].nic.mac1609_4 receivedFramesLowerMsg 31206
scalar RSUScenario.node[13].nic.mac1609_4 receivedBitsLowerPackets 0
scalar RSUScenario.node[13].nic.mac1609_4 receivedBitsLoserWsm 0
scalar RSUScenario.node[13].nic.mac1609_4 packetsNotForMe 0
scalar RSUScenario.node[13].nic.mac1609_4 receivedTotalBits 27420480
scalar RSUScenario.node[13].nic.mac1609_4 collisionsPktNonDecoded 0
scalar RSUScenario.node[13].nic.mac1609_4 chUtilizationSCH1 0.000233
scalar RSUScenario.node[13].nic.mac1609_4 chUtilizationSCH2 0
scalar RSUScenario.node[13].nic.mac1609_4 chUtilizationSCH3 0
scalar RSUScenario.node[13].nic.mac1609_4 chUtilizationSCH4 0
scalar RSUScenario.node[13].nic.mac1609_4 chUtilizationCCH 0.225812
scalar RSUScenario.node[13].nic.mac1609_4 chUtilizationHPPS 0
scalar RSUScenario.node[13].nic.mac1609_4 chUtilizationCRIT_SOL 0
scalar RSUScenario.node[13].nic.mac1609_4 ReceivedUnicastPackets 0
scalar RSUScenario.node[13].nic.mac1609_4 ReceivedBroadcasts 31206
scalar RSUScenario.node[13].nic.mac1609_4 SentPackets 1173
scalar RSUScenario.node[13].nic.mac1609_4 SentAcknowledgements 0
scalar RSUScenario.node[13].nic.mac1609_4 SNIRLostPackets 20
scalar RSUScenario.node[13].nic.mac1609_4 RXTXLostPackets 0
scalar RSUScenario.node[13].nic.mac1609_4 TotalLostPackets 20
scalar RSUScenario.node[13].nic.mac1609_4 DroppedPacketsInMac 0
scalar RSUScenario.node[13].nic.mac1609_4 TooLittleTime 0
scalar RSUScenario.node[13].nic.mac1609_4 TimesIntoBackoff 1173
scalar RSUScenario.node[13].nic.mac1609_4 SlotsBackoff 1742
scalar RSUScenario.node[13].nic.mac1609_4 NumInternalContention 0
scalar RSUScenario.node[13].nic.mac1609_4 totalBusyTime 6.586239129272
scalar RSUScenario.node[13].nic.mac1609_4 throughputMetricMac:last 156.06891611922
attr source throughputSignalMac
attr title "throughputMetricMac, last"
scalar RSUScenario.node[13].nic.mac1609_4 throughputMetricMac:count 31206
attr source throughputSignalMac
attr title "throughputMetricMac, count"
scalar RSUScenario.node[13].nic.mac1609_4 throughputMetricMac:sum 2960826.1724082
attr source throughputSignalMac
attr title "throughputMetricMac, sum"
scalar RSUScenario.node[13].nic.mac1609_4 throughputMetricMac:mean 94.880028597329
attr source throughputSignalMac
attr title "throughputMetricMac, mean"
scalar RSUScenario.node[13].veinsmobility startTime 83
scalar RSUScenario.node[13].veinsmobility totalTime 117
scalar RSUScenario.node[13].veinsmobility stopTime 200
scalar RSUScenario.node[13].veinsmobility minSpeed 0.00096499577547671
scalar RSUScenario.node[13].veinsmobility maxSpeed 7.1800269404833
scalar RSUScenario.node[13].veinsmobility totalDistance 209.47179765824
scalar RSUScenario.node[13].veinsmobility totalCO2Emission 144.68911034915
scalar RSUScenario.node[2].appl generatedWSMs 1
scalar RSUScenario.node[2].appl receivedWSMs 46
scalar RSUScenario.node[2].appl generatedBSMs 1939
scalar RSUScenario.node[2].appl receivedBSMs 36342
scalar RSUScenario.node[2].appl generatedWSAs 3
scalar RSUScenario.node[2].appl receivedWSAs 94
scalar RSUScenario.node[2].nic.phy80211p busyTime 0.036111587628891
scalar RSUScenario.node[2].nic.phy80211p ncollisions 5
scalar RSUScenario.node[2].nic.mac1609_4 throughputMetricMac 182.45549490847
scalar RSUScenario.node[2].nic.mac1609_4 throughputMbps 0.16023627459075
scalar RSUScenario.node[2].nic.mac1609_4 throughputControlMbps 0
scalar RSUScenario.node[2].nic.mac1609_4 receivedFramesLowerMsg 36482
scalar RSUScenario.node[2].nic.mac1609_4 receivedBitsLowerPackets 0
scalar RSUScenario.node[2].nic.mac1609_4 receivedBitsLoserWsm 0
scalar RSUScenario.node[2].nic.mac1609_4 packetsNotForMe 0
scalar RSUScenario.node[2].nic.mac1609_4 receivedTotalBits 32039264
scalar RSUScenario.node[2].nic.mac1609_4 collisionsPktNonDecoded 0
scalar RSUScenario.node[2].nic.mac1609_4 chUtilizationSCH1 0.000233
scalar RSUScenario.node[2].nic.mac1609_4 chUtilizationSCH2 0
scalar RSUScenario.node[2].nic.mac1609_4 chUtilizationSCH3 0
scalar RSUScenario.node[2].nic.mac1609_4 chUtilizationSCH4 0
scalar RSUScenario.node[2].nic.mac1609_4 chUtilizationCCH 0.374422
scalar RSUScenario.node[2].nic.mac1609_4 chUtilizationHPPS 0
scalar RSUScenario.node[2].nic.mac1609_4 chUtilizationCRIT_SOL 0
scalar RSUScenario.node[2].nic.mac1609_4 ReceivedUnicastPackets 0
scalar RSUScenario.node[2].nic.mac1609_4 ReceivedBroadcasts 36482
scalar RSUScenario.node[2].nic.mac1609_4 SentPackets 1943
scalar RSUScenario.node[2].nic.mac1609_4 SentAcknowledgements 0
scalar RSUScenario.node[2].nic.mac1609_4 SNIRLostPackets 60
scalar RSUScenario.node[2].nic.mac1609_4 RXTXLostPackets 0
scalar RSUScenario.node[2].nic.mac1609_4 TotalLostPackets 60
scalar RSUScenario.node[2].nic.mac1609_4 DroppedPacketsInMac 0
scalar RSUScenario.node[2].nic.mac1609_4 TooLittleTime 0
scalar RSUScenario.node[2].nic.mac1609_4 TimesIntoBackoff 1944
scalar RSUScenario.node[2].nic.mac1609_4 SlotsBackoff 2888
scalar RSUScenario.node[2].nic.mac1609_4 NumInternalContention 0
scalar RSUScenario.node[2].nic.mac1609_4 totalBusyTime 10.831149243975
scalar RSUScenario.node[2].nic.mac1609_4 throughputMetricMac:last 182.45549490847
attr source throughputSignalMac
attr title "throughputMetricMac, last"
scalar RSUScenario.node[2].nic.mac1609_4 throughputMetricMac:count 36482
attr source throughputSignalMac
attr title "throughputMetricMac, count"
scalar RSUScenario.node[2].nic.mac1609_4 throughputMetricMac:sum 4555019.8479459
attr source throughputSignalMac
attr title "throughputMetricMac, sum"
scalar RSUScenario.node[2].nic.mac1609_4 throughputMetricMac:mean 124.85663746357
attr source throughputSignalMac
attr title "throughputMetricMac, mean"
scalar RSUScenario.node[2].veinsmobility startTime 6
scalar RSUScenario.node[2].veinsmobility totalTime 194
scalar RSUScenario.node[2].veinsmobility stopTime 200
scalar RSUScenario.node[2].veinsmobility minSpeed 0.75509291509716
scalar RSUScenario.node[2].veinsmobility maxSpeed 13.987930055733
scalar RSUScenario.node[2].veinsmobility totalDistance 512.96064980434
scalar RSUScenario.node[2].veinsmobility totalCO2Emission 270.36112474224
scalar RSUScenario.node[3].appl generatedWSMs 1
scalar RSUScenario.node[3].appl receivedWSMs 46
scalar RSUScenario.node[3].appl generatedBSMs 1889
scalar RSUScenario.node[3].appl receivedBSMs 36513
scalar RSUScenario.node[3].appl generatedWSAs 3
scalar RSUScenario.node[3].appl receivedWSAs 94
scalar RSUScenario.node[3].nic.phy80211p busyTime 0.03724063492066
scalar RSUScenario.node[3].nic.phy80211p ncollisions 5
scalar RSUScenario.node[3].nic.mac1609_4 throughputMetricMac 183.31070821183
scalar RSUScenario.node[3].nic.mac1609_4 throughputMbps 0.16098886229761
scalar RSUScenario.node[3].nic.mac1609_4 throughputControlMbps 0
scalar RSUScenario.node[3].nic.mac1609_4 receivedFramesLowerMsg 36653
scalar RSUScenario.node[3].nic.mac1609_4 receivedBitsLowerPackets 0
scalar RSUScenario.node[3].nic.mac1609_4 receivedBitsLoserWsm 0
scalar RSUScenario.node[3].nic.mac1609_4 packetsNotForMe 0
scalar RSUScenario.node[3].nic.mac1609_4 receivedTotalBits 32189744
scalar RSUScenario.node[3].nic.mac1609_4 collisionsPktNonDecoded 0
scalar RSUScenario.node[3].nic.mac1609_4 chUtilizationSCH1 0.000233
scalar RSUScenario.node[3].nic.mac1609_4 chUtilizationSCH2 0
scalar RSUScenario.node[3].nic.mac1609_4 chUtilizationSCH3 0
scalar RSUScenario.node[3].nic.mac1609_4 chUtilizationSCH4 0
scalar RSUScenario.node[3].nic.mac1609_4 chUtilizationCCH 0.364772
scalar RSUScenario.node[3].nic.mac1609_4 chUtilizationHPPS 0
scalar RSUScenario.node[3].nic.mac1609_4 chUtilizationCRIT_SOL 0
scalar RSUScenario.node[3].nic.mac1609_4 ReceivedUnicastPackets 0
scalar RSUScenario.node[3].nic.mac1609_4 ReceivedBroadcasts 36653
scalar RSUScenario.node[3].nic.mac1609_4 SentPackets 1893
scalar RSUScenario.node[3].nic.mac1609_4 SentAcknowledgements 0
scalar RSUScenario.node[3].nic.mac1609_4 SNIRLostPackets 60
scalar RSUScenario.node[3].nic.mac1609_4 RXTXLostPackets 0
scalar RSUScenario.node[3].nic.mac1609_4 TotalLostPackets 60
scalar RSUScenario.node[3].nic.mac1609_4 DroppedPacketsInMac 0
scalar RSUScenario.node[3].nic.mac1609_4 TooLittleTime 0
scalar RSUScenario.node[3].nic.mac1609_4 TimesIntoBackoff 1893
scalar RSUScenario.node[3].nic.mac1609_4 SlotsBackoff 2830
scalar RSUScenario.node[3].nic.mac1609_4 NumInternalContention 0
scalar RSUScenario.node[3].nic.mac1609_4 totalBusyTime 10.426111481545
scalar RSUScenario.node[3].nic.mac1609_4 throughputMetricMac:last 183.31070821183
attr source throughputSignalMac
attr title "throughputMetricMac, last"
scalar RSUScenario.node[3].nic.mac1609_4 throughputMetricMac:count 36653
attr source throughputSignalMac
attr title "throughputMetricMac, count"
scalar RSUScenario.node[3].nic.mac1609_4 throughputMetricMac:sum 4571212.7075333
attr source throughputSignalMac
attr title "throughputMetricMac, sum"
scalar RSUScenario.node[3].nic.mac1609_4 throughputMetricMac:mean 124.71592250384
attr source throughputSignalMac
attr title "throughputMetricMac, mean"
scalar RSUScenario.node[3].veinsmobility startTime 11
scalar RSUScenario.node[3].veinsmobility totalTime 189
scalar RSUScenario.node[3].veinsmobility stopTime 200
scalar RSUScenario.node[3].veinsmobility minSpeed 0.98564389594301
scalar RSUScenario.node[3].veinsmobility maxSpeed 13.979706056794
scalar RSUScenario.node[3].veinsmobility totalDistance 493.42334988291
scalar RSUScenario.node[3].veinsmobility totalCO2Emission 263.12705076468
scalar RSUScenario.manager roiArea 0
scalar RSUScenario.rsu[0].appl generatedWSMs 9
scalar RSUScenario.rsu[0].appl receivedWSMs 9
scalar RSUScenario.rsu[0].appl generatedBSMs 0
scalar RSUScenario.rsu[0].appl receivedBSMs 27371
scalar RSUScenario.rsu[0].appl generatedWSAs 0
scalar RSUScenario.rsu[0].appl receivedWSAs 97
scalar RSUScenario.rsu[0].nic.phy80211p busyTime 0.027550680000016
scalar RSUScenario.rsu[0].nic.phy80211p ncollisions 653
scalar RSUScenario.rsu[0].nic.mac1609_4 ReceivedUnicastPackets 0
scalar RSUScenario.rsu[0].nic.mac1609_4 ReceivedBroadcasts 27477
scalar RSUScenario.rsu[0].nic.mac1609_4 SentPackets 8
scalar RSUScenario.rsu[0].nic.mac1609_4 SentAcknowledgements 0
scalar RSUScenario.rsu[0].nic.mac1609_4 SNIRLostPackets 1286
scalar RSUScenario.rsu[0].nic.mac1609_4 RXTXLostPackets 0
scalar RSUScenario.rsu[0].nic.mac1609_4 TotalLostPackets 1286
scalar RSUScenario.rsu[0].nic.mac1609_4 DroppedPacketsInMac 1
scalar RSUScenario.rsu[0].nic.mac1609_4 TooLittleTime 0
scalar RSUScenario.rsu[0].nic.mac1609_4 TimesIntoBackoff 9
scalar RSUScenario.rsu[0].nic.mac1609_4 SlotsBackoff 14
scalar RSUScenario.rsu[0].nic.mac1609_4 NumInternalContention 0
scalar RSUScenario.rsu[0].nic.mac1609_4 totalBusyTime 5.390808
scalar RSUScenario.metricsApplication.metrics packetsDeliveredToMetrics 201
scalar RSUScenario.metricsApplication.metrics throughputMetric 1.005
scalar RSUScenario.metricsApplication.metrics throughputMetric:last 1.005
attr source throughputSignal
attr title "throughputMetric, last"
scalar RSUScenario.metricsApplication.metrics throughputMetric:count 201
attr source throughputSignal
attr title "throughputMetric, count"
scalar RSUScenario.metricsApplication.metrics throughputMetric:sum 205.87803094812
attr source throughputSignal
attr title "throughputMetric, sum"
scalar RSUScenario.metricsApplication.metrics throughputMetric:mean 1.0242688106872
attr source throughputSignal
attr title "throughputMetric, mean"
scalar RSUScenario.metricsApplication.appl generatedWSMs 0
scalar RSUScenario.metricsApplication.appl receivedWSMs 0
scalar RSUScenario.metricsApplication.appl generatedBSMs 0
scalar RSUScenario.metricsApplication.appl receivedBSMs 0
scalar RSUScenario.metricsApplication.appl generatedWSAs 0
scalar RSUScenario.metricsApplication.appl receivedWSAs 0
scalar RSUScenario.metricsApplication.nic.phy80211p busyTime 0
scalar RSUScenario.metricsApplication.nic.phy80211p ncollisions 0
scalar RSUScenario.metricsApplication.nic.mac1609_4 throughputMetricMac 0
scalar RSUScenario.metricsApplication.nic.mac1609_4 throughputMbps 0
scalar RSUScenario.metricsApplication.nic.mac1609_4 throughputControlMbps 0
scalar RSUScenario.metricsApplication.nic.mac1609_4 receivedFramesLowerMsg 0
scalar RSUScenario.metricsApplication.nic.mac1609_4 receivedBitsLowerPackets 0
scalar RSUScenario.metricsApplication.nic.mac1609_4 receivedBitsLoserWsm 0
scalar RSUScenario.metricsApplication.nic.mac1609_4 packetsNotForMe 0
scalar RSUScenario.metricsApplication.nic.mac1609_4 receivedTotalBits 0
scalar RSUScenario.metricsApplication.nic.mac1609_4 collisionsPktNonDecoded 0
scalar RSUScenario.metricsApplication.nic.mac1609_4 chUtilizationSCH1 0
scalar RSUScenario.metricsApplication.nic.mac1609_4 chUtilizationSCH2 0
scalar RSUScenario.metricsApplication.nic.mac1609_4 chUtilizationSCH3 0
scalar RSUScenario.metricsApplication.nic.mac1609_4 chUtilizationSCH4 0
scalar RSUScenario.metricsApplication.nic.mac1609_4 chUtilizationCCH 0
scalar RSUScenario.metricsApplication.nic.mac1609_4 chUtilizationHPPS 0
scalar RSUScenario.metricsApplication.nic.mac1609_4 chUtilizationCRIT_SOL 0
scalar RSUScenario.metricsApplication.nic.mac1609_4 ReceivedUnicastPackets 0
scalar RSUScenario.metricsApplication.nic.mac1609_4 ReceivedBroadcasts 0
scalar RSUScenario.metricsApplication.nic.mac1609_4 SentPackets 0
scalar RSUScenario.metricsApplication.nic.mac1609_4 SentAcknowledgements 0
scalar RSUScenario.metricsApplication.nic.mac1609_4 SNIRLostPackets 0
scalar RSUScenario.metricsApplication.nic.mac1609_4 RXTXLostPackets 0
scalar RSUScenario.metricsApplication.nic.mac1609_4 TotalLostPackets 0
scalar RSUScenario.metricsApplication.nic.mac1609_4 DroppedPacketsInMac 0
scalar RSUScenario.metricsApplication.nic.mac1609_4 TooLittleTime 0
scalar RSUScenario.metricsApplication.nic.mac1609_4 TimesIntoBackoff 0
scalar RSUScenario.metricsApplication.nic.mac1609_4 SlotsBackoff 0
scalar RSUScenario.metricsApplication.nic.mac1609_4 NumInternalContention 0
scalar RSUScenario.metricsApplication.nic.mac1609_4 totalBusyTime 100.00018082901
scalar RSUScenario.metricsApplication.nic.mac1609_4 throughputMetricMac:last nan
attr source throughputSignalMac
attr title "throughputMetricMac, last"
scalar RSUScenario.metricsApplication.nic.mac1609_4 throughputMetricMac:count 0
attr source throughputSignalMac
attr title "throughputMetricMac, count"
scalar RSUScenario.metricsApplication.nic.mac1609_4 throughputMetricMac:sum 0
attr source throughputSignalMac
attr title "throughputMetricMac, sum"
scalar RSUScenario.metricsApplication.nic.mac1609_4 throughputMetricMac:mean -nan
attr source throughputSignalMac
attr title "throughputMetricMac, mean"

