version 2
run CCH_SCH_Safety_B_100Bytes_Q_1-0-20180911-15:42:46-4316
attr configname CCH_SCH_Safety_B_100Bytes_Q_1
attr datetime 20180911-15:42:46
attr experiment CCH_SCH_Safety_B_100Bytes_Q_1
attr inifile omnetpp.ini
attr iterationvars $0=1
attr iterationvarsf 1-
attr measurement $0=1
attr network vanets.RSUScenario
attr processid 4316
attr repetition 0
attr replication #0
attr resultdir results
attr runnumber 0
attr seedset 0
param **.debug false
param **.coreDebug false
param *.annotations.draw false
param *.rsu[*].appl.beaconLengthBits 800bit
param *.node[*].appl.beaconLengthBits 800bit
param *.metricsApplication.appl.beaconLengthBits 800bit
param *.node[*].appl.sendBeacons true
param *.rsu[*].appl.sendBeacons false
param *.metricsApplicaiton[*].appl.sendBeacons false
param *.node[*].appl.dataOnSch true
param *.rsu[*].appl.dataOnSch false
param *.metricsApplication[*].appl.dataOnSch false
param *.node[*].appl.sendData true
param *.rsu[*].appl.sendData true
param *.metricsApplication[*].appl.sendData false
param *.node[*].appl.beaconInterval 0.1s
param *.rsu[*].appl.beaconInterval 0.1s
param *.metricsApplication[*].appl.beaconInterval 0.1s
param *.node[*].appl.beaconPriority 3
param *.rsu[*].appl.beaconPriority 3
param *.metricsApplication[*].appl.beaconPriority 3
param *.node[*].appl.dataPriority 2
param *.rsu[*].appl.dataPriority 2
param *.metricsApplication.appl.beaconPriority 2
param *.**.nic.mac1609_4.queueSize 1
param *.**.nic.mac1609_4.useServiceChannel true
param *.manager.launchConfig "xmldoc(\"erlangen.launchd.xml\")"
param **.debug false
param **.coreDebug false
param *.playgroundSizeX 2500m
param *.playgroundSizeY 2500m
param *.playgroundSizeZ 50m
param *.annotations.draw false
param *.obstacles.debug false
param *.obstacles.obstacles "xmldoc(\"config.xml\", \"//AnalogueModel[@type='SimpleObstacleShadowing']/obstacles\")"
param *.world.useTorus false
param *.world.use2D false
param *.manager.updateInterval 1s
param *.manager.host "\"localhost\""
param *.manager.port 9999
param *.manager.autoShutdown true
param *.manager.launchConfig "xmldoc(\"erlangen.launchd.xml\")"
param *.manager.moduleType "\"vanets.CarWithMetrics\""
param *.manager.moduleName "\"node\""
param *.manager.moduleDisplayString "\"\""
param *.manager.margin 25
param *.manager.numVehicles 5
param *.manager.debug true
param *.rsu[0].mobility.x 2000
param *.rsu[0].mobility.y 2000
param *.rsu[0].mobility.z 3
param *.rsu[*].applType "\"TraCIDemoRSU11p\""
param *.rsu[*].appl.headerLength "80 bit"
param *.rsu[*].appl.sendBeacons false
param *.rsu[*].appl.dataOnSch false
param *.rsu[*].appl.beaconInterval 1s
param *.rsu[*].appl.beaconUserPriority 7
param *.rsu[*].appl.dataUserPriority 5
param *.metricsApplication.applType "\"TraCIDemoRSU11p\""
param *.metricsApplication.appl.debug false
param *.metricsApplication.appl.headerLength "80 bit"
param *.metricsApplication.appl.sendBeacons false
param *.metricsApplication.appl.dataOnSch false
param *.metricsApplication.appl.beaconInterval 1s
param *.metricsApplication.appl.beaconUserPriority 7
param *.metricsApplication.appl.dataUserPriority 2
param *.connectionManager.sendDirect true
param *.connectionManager.maxInterfDist 2600m
param *.connectionManager.drawMaxIntfDist false
param *.**.nic.mac1609_4.useServiceChannel false
param *.**.nic.mac1609_4.txPower 100mW
param *.**.nic.mac1609_4.bitrate 6Mbps
param *.**.nic.phy80211p.sensitivity -89dBm
param *.**.nic.mac1609_4.queueSize 1
param *.**.nic.phy80211p.useThermalNoise true
param *.**.nic.phy80211p.thermalNoise -110dBm
param *.**.nic.phy80211p.decider "xmldoc(\"config.xml\", \"/root/Decider[@type='Decider80211p']\")"
param *.**.nic.phy80211p.decider.collectCollisionStats true
param *.**.nic.phy80211p.analogueModels "xmldoc(\"config.xml\")"
param *.**.nic.phy80211p.usePropagationDelay true
param *.**.nic.phy80211p.collectCollisionStatistics true
param *.**.nic.phy80211p.antenna "xmldoc(\"antenna.xml\", \"/root/Antenna[@id='monopole']\")"
param *.node[*].applType "\"TraCIDemo11p\""
param *.node[*].appl.headerLength "80 bit"
param *.node[*].appl.sendBeacons false
param *.node[*].appl.dataOnSch false
param *.node[*].appl.beaconInterval 1s
param *.node[*].veinsmobilityType.debug true
param *.node[*].veinsmobility.x 0
param *.node[*].veinsmobility.y 0
param *.node[*].veinsmobility.z 1.895
param *.node[*0].veinsmobility.accidentCount 1
param *.node[*0].veinsmobility.accidentStart 10s
param *.node[*0].veinsmobility.accidentDuration 30s

vector 0 RSUScenario.node[0].veinsmobility posx ETV
vector 1 RSUScenario.node[0].veinsmobility posy ETV
vector 2 RSUScenario.node[0].veinsmobility speed ETV
vector 3 RSUScenario.node[1].veinsmobility posx ETV
vector 4 RSUScenario.node[1].veinsmobility posy ETV
vector 5 RSUScenario.node[0].veinsmobility acceleration ETV
vector 6 RSUScenario.node[0].veinsmobility co2emission ETV
vector 7 RSUScenario.node[1].veinsmobility speed ETV
vector 8 RSUScenario.node[1].veinsmobility acceleration ETV
vector 9 RSUScenario.node[1].veinsmobility co2emission ETV
vector 10 RSUScenario.node[2].veinsmobility posx ETV
vector 11 RSUScenario.node[2].veinsmobility posy ETV
vector 12 RSUScenario.node[2].veinsmobility speed ETV
vector 13 RSUScenario.node[2].veinsmobility acceleration ETV
vector 14 RSUScenario.node[2].veinsmobility co2emission ETV
vector 15 RSUScenario.node[3].veinsmobility posx ETV
vector 16 RSUScenario.node[3].veinsmobility posy ETV
vector 17 RSUScenario.node[4].veinsmobility posx ETV
vector 18 RSUScenario.node[4].veinsmobility posy ETV
vector 19 RSUScenario.node[3].veinsmobility speed ETV
vector 20 RSUScenario.node[3].veinsmobility acceleration ETV
vector 21 RSUScenario.node[3].veinsmobility co2emission ETV
vector 22 RSUScenario.node[4].veinsmobility speed ETV
vector 23 RSUScenario.node[4].veinsmobility acceleration ETV
vector 24 RSUScenario.node[4].veinsmobility co2emission ETV
vector 25 RSUScenario.node[5].veinsmobility posx ETV
vector 26 RSUScenario.node[5].veinsmobility posy ETV
vector 27 RSUScenario.node[5].veinsmobility speed ETV
vector 28 RSUScenario.node[5].veinsmobility acceleration ETV
vector 29 RSUScenario.node[5].veinsmobility co2emission ETV
vector 30 RSUScenario.node[6].veinsmobility posx ETV
vector 31 RSUScenario.node[6].veinsmobility posy ETV
vector 32 RSUScenario.node[6].veinsmobility speed ETV
vector 33 RSUScenario.node[6].veinsmobility acceleration ETV
vector 34 RSUScenario.node[6].veinsmobility co2emission ETV
vector 35 RSUScenario.node[7].veinsmobility posx ETV
vector 36 RSUScenario.node[7].veinsmobility posy ETV
vector 37 RSUScenario.node[7].veinsmobility speed ETV
vector 38 RSUScenario.node[7].veinsmobility acceleration ETV
vector 39 RSUScenario.node[7].veinsmobility co2emission ETV
vector 40 RSUScenario.node[8].veinsmobility posx ETV
vector 41 RSUScenario.node[8].veinsmobility posy ETV
vector 42 RSUScenario.node[8].veinsmobility speed ETV
vector 43 RSUScenario.node[8].veinsmobility acceleration ETV
vector 44 RSUScenario.node[8].veinsmobility co2emission ETV
vector 45 RSUScenario.node[9].veinsmobility posx ETV
vector 46 RSUScenario.node[9].veinsmobility posy ETV
vector 47 RSUScenario.node[9].veinsmobility speed ETV
vector 48 RSUScenario.node[9].veinsmobility acceleration ETV
vector 49 RSUScenario.node[9].veinsmobility co2emission ETV
vector 50 RSUScenario.node[10].veinsmobility posx ETV
vector 51 RSUScenario.node[10].veinsmobility posy ETV
vector 52 RSUScenario.node[10].veinsmobility speed ETV
vector 53 RSUScenario.node[10].veinsmobility acceleration ETV
vector 54 RSUScenario.node[10].veinsmobility co2emission ETV
vector 55 RSUScenario.node[11].veinsmobility posx ETV
vector 56 RSUScenario.node[11].veinsmobility posy ETV
vector 57 RSUScenario.node[11].veinsmobility speed ETV
vector 58 RSUScenario.node[11].veinsmobility acceleration ETV
vector 59 RSUScenario.node[11].veinsmobility co2emission ETV
vector 60 RSUScenario.node[12].veinsmobility posx ETV
vector 61 RSUScenario.node[12].veinsmobility posy ETV
vector 62 RSUScenario.node[12].veinsmobility speed ETV
vector 63 RSUScenario.node[12].veinsmobility acceleration ETV
vector 64 RSUScenario.node[12].veinsmobility co2emission ETV
0	42	1	2414.9014220152
0	239	2	2414.9014220152
0	452	3	2412.0282535021
0	933	4	2407.3882241928
0	1436	5	2402.58626065
0	1939	6	2396.420519083
0	2824	7	2388.9147587077
0	3737	8	2379.9992780851
0	4650	9	2370.2874205885
0	5563	10	2360.585355688
0	6477	11	2350.8671117298
0	7886	12	2342.9440514196
0	9939	13	2338.7587663516
0	12032	14	2337.3435226944
0	14125	15	2337.3435226944
0	16218	16	2337.3435226944
0	18311	17	2337.3435226944
0	21128	18	2337.3435226944
0	23991	19	2337.3435226944
0	26854	20	2337.3435226944
0	29717	21	2337.3435226944
0	32580	22	2337.3435226944
0	36689	23	2337.3435226944
0	40850	24	2337.3435226944
0	45367	25	2337.3435226944
0	49170	26	2337.3435226944
0	53175	27	2337.3435226944
0	57880	28	2337.3435226944
0	62643	29	2337.3435226944
0	67406	30	2337.3435226944
0	72169	31	2337.3435226944
0	77998	32	2337.3435226944
0	83891	33	2337.3435226944
0	89784	34	2337.3435226944
0	95677	35	2337.3435226944
0	101570	36	2337.3435226944
0	108643	37	2337.3435226944
0	115786	38	2337.3435226944
0	122929	39	2337.3435226944
0	130072	40	2337.3435226944
0	137216	41	2337.3435226944
0	145653	42	2336.5249448147
0	154166	43	2335.1005747541
0	162679	44	2334.2031773466
0	171192	45	2334.7047674261
0	179665	46	2341.2798826832
0	189546	47	2349.6161976923
0	199509	48	2359.2633454446
0	209472	49	2372.3382008162
0	219435	50	2386.0329816432
0	230921	51	2399.3277640167
0	242494	52	2409.735841534
0	254067	53	2417.0995893856
0	265640	54	2421.8070122814
0	277213	55	2426.3953417424
0	288786	56	2430.8091933745
0	300359	57	2432.1275896608
0	311932	58	2433.7571953952
0	323505	59	2435.6530374507
0	335078	60	2437.734220636
0	347434	61	2438.8370801585
0	359790	62	2439.7609988422
0	372653	63	2440.7723355127
0	384472	64	2441.782358008
0	396150	65	2442.7919487618
0	407723	66	2443.8022128009
0	419296	67	2444.8135354778
0	430869	68	2445.8242097378
0	442442	69	2446.8344743385
0	453855	70	2447.8465754896
0	465188	71	2448.8578961624
0	476441	72	2449.8679601888
0	487614	73	2450.4195231132
0	498707	74	2449.3073565419
0	509800	75	2448.1972147524
0	520813	76	2447.0848037533
1	42	1	1578.4416120471
1	239	2	1578.4416120471
1	452	3	1579.4966245294
1	933	4	1581.3242424726
1	1436	5	1586.1879699975
1	1939	6	1592.4330167789
1	2824	7	1600.0353180049
1	3737	8	1609.0654716315
1	4650	9	1618.9022453176
1	5563	10	1628.7291004527
1	6477	11	1638.572342745
1	7886	12	1646.625630673
1	9939	13	1651.9834469669
1	12032	14	1653.7951791193
1	14125	15	1653.7951791193
1	16218	16	1653.7951791193
1	18311	17	1653.7951791193
1	21128	18	1653.7951791193
1	23991	19	1653.7951791193
1	26854	20	1653.7951791193
1	29717	21	1653.7951791193
1	32580	22	1653.7951791193
1	36689	23	1653.7951791193
1	40850	24	1653.7951791193
1	45367	25	1653.7951791193
1	49170	26	1653.7951791193
1	53175	27	1653.7951791193
1	57880	28	1653.7951791193
1	62643	29	1653.7951791193
1	67406	30	1653.7951791193
1	72169	31	1653.7951791193
1	77998	32	1653.7951791193
1	83891	33	1653.7951791193
1	89784	34	1653.7951791193
1	95677	35	1653.7951791193
1	101570	36	1653.7951791193
1	108643	37	1653.7951791193
1	115786	38	1653.7951791193
1	122929	39	1653.7951791193
1	130072	40	1653.7951791193
1	137216	41	1653.7951791193
1	145653	42	1654.8430862101
1	154166	43	1657.8019117434
1	162679	44	1663.2063871743
1	171192	45	1670.3183484674
1	179665	46	1676.4781183181
1	189546	47	1683.6246011918
1	199509	48	1692.3246406689
1	209472	49	1695.6682614107
1	219435	50	1697.4432241702
1	230921	51	1698.7120051831
1	242494	52	1699.6961584166
1	254067	53	1700.3924499508
1	265640	54	1700.8375682207
1	277213	55	1701.1158327069
1	288786	56	1705.14757335
1	300359	57	1713.823291285
1	311932	58	1724.5469256304
1	323505	59	1737.0225303434
1	335078	60	1750.7283995105
1	347434	61	1764.6436016075
1	359790	62	1778.5572417472
1	372653	63	1792.4651152752
1	384472	64	1806.3549163043
1	396150	65	1820.2387800356
1	407723	66	1834.1319027692
1	419296	67	1848.039583859
1	430869	68	1861.9383479375
1	442442	69	1875.8314783918
1	453855	70	1889.7498650374
1	465188	71	1903.6575185666
1	476441	72	1917.5478907283
1	487614	73	1931.441463979
1	498707	74	1945.3227477288
1	509800	75	1959.1787595721
1	520813	76	1973.0630941
2	239	2	3.9572089270348
2	452	3	5.8966676666783
2	933	4	7.6831454034251
2	1436	5	9.5958043830082
2	1939	6	11.608105462604
2	2824	7	13.554704701301
2	3737	8	13.827483840289
2	4650	9	13.780619804119
2	5563	10	13.774097923993
2	6477	11	9.2740979239927
2	7886	12	4.7740979239927
2	9939	13	0.27409792399267
2	12032	14	0
2	14125	15	0
2	16218	16	0
2	18311	17	0
2	21128	18	0
2	23991	19	0
2	26854	20	0
2	29717	21	0
2	32580	22	0
2	36689	23	0
2	40850	24	0
2	45367	25	0
2	49170	26	0
2	53175	27	0
2	57880	28	0
2	62643	29	0
2	67406	30	0
2	72169	31	0
2	77998	32	0
2	83891	33	0
2	89784	34	0
2	95677	35	0
2	101570	36	0
2	108643	37	0
2	115786	38	0
2	122929	39	0
2	130072	40	0
2	137216	41	2.341396342422
2	145653	42	4.3579228623832
2	154166	43	6.297232750076
2	162679	44	8.0187210534971
2	171192	45	9.9040340798084
2	179665	46	11.820713728463
2	189546	47	13.785507081097
2	199509	48	13.875667816706
2	209472	49	13.888678557524
2	219435	50	12.184583151306
2	230921	51	9.032823627447
2	242494	52	6.0901488774079
2	254067	53	3.7248073543971
2	265640	54	5.7673709107285
2	277213	55	7.6235637587706
2	288786	56	9.8541828012561
2	300359	57	11.670413647869
2	311932	58	13.34651595582
2	323505	59	13.990924139919
2	335078	60	13.994213748015
2	347434	61	13.997784706887
2	359790	62	13.919994957068
2	372653	63	13.874534878044
2	384472	64	13.892564047286
2	396150	65	13.987716653978
2	407723	66	13.887252810202
2	419296	67	13.956991220883
2	430869	68	13.914239585721
2	442442	69	13.946184876158
2	453855	70	13.920672302633
2	465188	71	13.978679429647
2	476441	72	13.900243088198
2	487614	73	13.88767250004
2	498707	74	13.871560299364
2	509800	75	13.877581196567
2	520813	76	13.975632182895
3	452	3	2416.8733999323
3	933	4	2416.8733999323
3	1436	5	2415.6091245101
3	1939	6	2414.3297608945
3	2824	7	2413.0608086878
3	3737	8	2411.784071286
3	4650	9	2410.5084319564
3	5563	10	2409.2382968365
3	6477	11	2407.9741699421
3	7886	12	2406.9264332583
3	9939	13	2405.9705753099
3	12032	14	2405.0127915443
3	14125	15	2404.0620217433
3	16218	16	2403.1120463513
3	18311	17	2402.1530120872
3	21128	18	2401.195836457
3	23991	19	2400.249009397
3	26854	20	2399.2948450497
3	29717	21	2398.3462159754
3	32580	22	2397.4000799049
3	36689	23	2396.4478509233
3	40850	24	2395.4995078107
3	45367	25	2394.5470105201
3	49170	26	2393.5881657234
3	53175	27	2392.6385666089
3	57880	28	2391.6811003394
3	62643	29	2390.7322746279
3	67406	30	2389.7807841415
3	72169	31	2388.8279439007
3	77998	32	2387.8818115046
3	83891	33	2386.9338306915
3	89784	34	2385.9807682297
3	95677	35	2385.0248441817
3	101570	36	2384.0806117429
3	108643	37	2383.134864015
3	115786	38	2382.1851646596
3	122929	39	2381.2369177836
3	130072	40	2380.2903374197
3	137216	41	2379.3412074929
3	145653	42	2378.3889002138
3	154166	43	2377.4426818109
3	162679	44	2376.4944137797
3	171192	45	2375.5412286645
3	179665	46	2374.5853626007
3	189546	47	2373.6357392023
3	199509	48	2372.692667178
3	209472	49	2371.7490485441
3	219435	50	2370.7988860424
3	230921	51	2369.8452516927
3	242494	52	2368.8971139035
3	254067	53	2367.9384829677
3	265640	54	2366.9878984872
3	277213	55	2366.0373554967
3	288786	56	2365.0829230784
3	300359	57	2364.1326507836
3	311932	58	2363.1886280864
3	323505	59	2362.2424947449
3	335078	60	2361.2913599727
3	347434	61	2360.3364864716
3	359790	62	2359.382334115
3	372653	63	2358.4385471408
3	384472	64	2357.4792812344
3	396150	65	2356.5275926044
3	407723	66	2355.5743624067
3	419296	67	2354.6239173049
3	430869	68	2353.6817165394
3	442442	69	2352.7275992931
3	453855	70	2351.775989439
3	465188	71	2350.8228587795
3	476441	72	2349.8680061267
3	487614	73	2348.9185988631
3	498707	74	2347.9709955091
3	509800	75	2347.0126587533
3	520813	76	2346.0612238974
4	452	3	1577.7175120478
4	933	4	1577.7175120478
4	1436	5	1578.1817473844
4	1939	6	1578.6515230266
4	2824	7	1579.117475654
4	3737	8	1579.5862869648
4	4650	9	1580.0546950689
4	5563	10	1580.5210820567
4	6477	11	1580.985262854
4	7886	12	1581.7919730702
4	9939	13	1582.760125488
4	12032	14	1583.730228493
4	14125	15	1584.6932273181
4	16218	16	1585.6554215169
4	18311	17	1586.6267911047
4	21128	18	1587.5962781524
4	23991	19	1588.5552835241
4	26854	20	1589.5217205575
4	29717	21	1590.4825511212
4	32580	22	1591.440856616
4	36689	23	1592.4053333895
4	40850	24	1593.3658743147
4	45367	25	1594.3306228481
4	49170	26	1595.3018005323
4	53175	27	1596.2636136133
4	57880	28	1597.2333950382
4	62643	29	1598.1944247689
4	67406	30	1599.1581535488
4	72169	31	1600.1232494442
4	77998	32	1601.0815512175
4	83891	33	1602.041725182
4	89784	34	1603.0070461575
4	95677	35	1603.9752655244
4	101570	36	1604.9316429021
4	108643	37	1605.8895550594
4	115786	38	1606.8514696704
4	122929	39	1607.8119131206
4	130072	40	1608.770668623
4	137216	41	1609.7320064818
4	145653	42	1610.6965625603
4	154166	43	1611.6549514467
4	162679	44	1612.6154163238
4	171192	45	1613.5808615293
4	179665	46	1614.549022167
4	189546	47	1615.5108598443
4	199509	48	1616.4660618817
4	209472	49	1617.4218175607
4	219435	50	1618.3842012752
4	230921	51	1619.3501014933
4	242494	52	1620.3104344532
4	254067	53	1621.2813955257
4	265640	54	1622.2442066465
4	277213	55	1623.2069757441
4	288786	56	1624.1736842962
4	300359	57	1625.1361792162
4	311932	58	1626.0923441546
4	323505	59	1627.0506468853
4	335078	60	1628.0140153756
4	347434	61	1628.9811706841
4	359790	62	1629.9475955721
4	372653	63	1630.9035217557
4	384472	64	1631.8751259651
4	396150	65	1632.8390554376
4	407723	66	1633.8045463059
4	419296	67	1634.7672162559
4	430869	68	1635.721535828
4	442442	69	1636.6879251543
4	453855	70	1637.6517748376
4	465188	71	1638.6171648875
4	476441	72	1639.5842990791
4	487614	73	1640.5459178416
4	498707	74	1641.5057094926
4	509800	75	1642.4763726005
4	520813	76	1643.4400450345
5	452	3	1.9394587396434
5	933	4	1.7864777367469
5	1436	5	1.9126589795831
5	1939	6	2.0123010795959
5	2824	7	1.9465992386965
5	3737	8	0.27277913898843
5	4650	9	-0.0468640361703
5	5563	10	-0.0065218801260922
5	6477	11	-4.5
5	7886	12	-4.5
5	9939	13	-4.5
5	12032	14	-0.27409792399267
5	14125	15	0
5	16218	16	0
5	18311	17	0
5	21128	18	0
5	23991	19	0
5	26854	20	0
5	29717	21	0
5	32580	22	0
5	36689	23	0
5	40850	24	0
5	45367	25	0
5	49170	26	0
5	53175	27	0
5	57880	28	0
5	62643	29	0
5	67406	30	0
5	72169	31	0
5	77998	32	0
5	83891	33	0
5	89784	34	0
5	95677	35	0
5	101570	36	0
5	108643	37	0
5	115786	38	0
5	122929	39	0
5	130072	40	0
5	137216	41	2.341396342422
5	145653	42	2.0165265199612
5	154166	43	1.9393098876928
5	162679	44	1.7214883034211
5	171192	45	1.8853130263113
5	179665	46	1.9166796486545
5	189546	47	1.9647933526345
5	199509	48	0.090160735608078
5	209472	49	0.01301074081799
5	219435	50	-1.7040954062175
5	230921	51	-3.151759523859
5	242494	52	-2.9426747500391
5	254067	53	-2.3653415230108
5	265640	54	2.0425635563314
5	277213	55	1.8561928480421
5	288786	56	2.2306190424855
5	300359	57	1.8162308466132
5	311932	58	1.6761023079511
5	323505	59	0.64440818409887
5	335078	60	0.0032896080962388
5	347434	61	0.00357095887186
5	359790	62	-0.077789749819786
5	372653	63	-0.045460079023613
5	384472	64	0.018029169242363
5	396150	65	0.0951526066917
5	407723	66	-0.10046384377638
5	419296	67	0.069738410681021
5	430869	68	-0.042751635161695
5	442442	69	0.031945290437434
5	453855	70	-0.025512573525775
5	465188	71	0.058007127013989
5	476441	72	-0.078436341448686
5	487614	73	-0.012570588157978
5	498707	74	-0.016112200675998
5	509800	75	0.0060208972031237
5	520813	76	0.098050986328163
6	452	3	4.1695546184085
6	933	4	4.8304427410518
6	1436	5	6.0777192532467
6	1939	6	7.4439910681832
6	2824	7	8.3528641489679
6	3737	8	2.9302852404392
6	4650	9	1.8608925099174
6	5563	10	1.9942265821232
6	6477	11	0.973
6	7886	12	0.973
6	9939	13	0.973
6	12032	14	0.973
6	14125	15	0.973
6	16218	16	0.973
6	18311	17	0.973
6	21128	18	0.973
6	23991	19	0.973
6	26854	20	0.973
6	29717	21	0.973
6	32580	22	0.973
6	36689	23	0.973
6	40850	24	0.973
6	45367	25	0.973
6	49170	26	0.973
6	53175	27	0.973
6	57880	28	0.973
6	62643	29	0.973
6	67406	30	0.973
6	72169	31	0.973
6	77998	32	0.973
6	83891	33	0.973
6	89784	34	0.973
6	95677	35	0.973
6	101570	36	0.973
6	108643	37	0.973
6	115786	38	0.973
6	122929	39	0.973
6	130072	40	0.973
6	137216	41	2.545329698065
6	145653	42	3.4457477469991
6	154166	43	4.3800080072216
6	162679	44	4.87125033336
6	171192	45	6.1775166336307
6	179665	46	7.2930350680445
6	189546	47	8.544674221522
6	199509	48	2.3276568301543
6	209472	49	2.0710277907514
6	219435	50	0.973
6	230921	51	0.973
6	242494	52	0.973
6	254067	53	0.973
6	265640	54	4.2449731266916
6	277213	55	4.9290350831268
6	288786	56	6.9711657705851
6	300359	57	6.9280922087184
6	311932	58	7.3646586366114
6	323505	59	4.2107408676415
6	335078	60	2.0493488960536
6	347434	61	2.0506669767476
6	359790	62	1.7697044793006
6	372653	63	1.8740332639622
6	384472	64	2.0882374202118
6	396150	65	2.3583516829634
6	407723	66	1.6910984230697
6	419296	67	2.2690184392196
6	430869	68	1.8867202259085
6	442442	69	2.1407087525418
6	453855	70	1.9451445901371
6	465188	71	2.2320807887813
6	476441	72	1.7658967230716
6	487614	73	1.9853034319846
6	498707	74	1.9718750092394
6	509800	75	2.0464873727656
6	520813	76	2.3665990249525
7	933	4	1.3815341939982
7	1436	5	1.3262084394874
7	1939	6	1.363631196291
7	2824	7	1.3752373363402
7	3737	8	1.3806439087299
7	4650	9	1.3687912436823
7	5563	10	1.3227257632469
7	6477	11	1.3875560277342
7	7886	12	1.3563021408562
7	9939	13	1.3770148199466
7	12032	14	1.3849709489861
7	14125	15	1.3274071066472
7	16218	16	1.3774334117059
7	18311	17	1.3727984982284
7	21128	18	1.3606082522407
7	23991	19	1.3348128196635
7	26854	20	1.3276360128495
7	29717	21	1.3865760676142
7	32580	22	1.3201798767518
7	36689	23	1.3625654933437
7	40850	24	1.3572608231657
7	45367	25	1.3650964595662
7	49170	26	1.3512930004476
7	53175	27	1.3467187932434
7	57880	28	1.362476723136
7	62643	29	1.3812649679959
7	67406	30	1.3616271679024
7	72169	31	1.3277306860578
7	77998	32	1.3434665328209
7	83891	33	1.3413801577473
7	89784	34	1.3672579118186
7	95677	35	1.3381204713369
7	101570	36	1.3353315650764
7	108643	37	1.3523743778933
7	115786	38	1.3524599258542
7	122929	39	1.3339054568011
7	130072	40	1.3286902144804
7	137216	41	1.3771310633618
7	145653	42	1.343018321495
7	154166	43	1.3678269498471
7	162679	44	1.3537326239425
7	171192	45	1.3752328969713
7	179665	46	1.3208840114627
7	189546	47	1.3354313181642
7	199509	48	1.3332072315582
7	209472	49	1.3383004190109
7	219435	50	1.33413413968
7	230921	51	1.3372265399893
7	242494	52	1.3426422630275
7	254067	53	1.3801133663381
7	265640	54	1.3261075822649
7	277213	55	1.3375043415807
7	288786	56	1.3499028666249
7	300359	57	1.3332449014221
7	311932	58	1.3247306737887
7	323505	59	1.3306786776553
7	335078	60	1.3851622981343
7	347434	61	1.3871795463072
7	359790	62	1.3805286533089
7	372653	63	1.3824805839815
7	384472	64	1.3600420168789
7	396150	65	1.3231655897107
7	407723	66	1.3574094403076
7	419296	67	1.3635087827182
7	430869	68	1.3580212693099
7	442442	69	1.3691022878953
7	453855	70	1.3638716555983
7	465188	71	1.3494832679539
7	476441	72	1.3876268733778
7	487614	73	1.3212834199496
7	498707	74	1.3723697795164
7	509800	75	1.3512544525373
7	520813	76	1.3886964615409
8	1436	5	-0.055325754510704
8	1939	6	0.037422756803507
8	2824	7	0.011606140049278
8	3737	8	0.0054065723897008
8	4650	9	-0.011852665047627
8	5563	10	-0.04606548043537
8	6477	11	0.064830264487278
8	7886	12	-0.031253886877999
8	9939	13	0.02071267909034
8	12032	14	0.007956129039586
8	14125	15	-0.057563842338924
8	16218	16	0.050026305058661
8	18311	17	-0.0046349134774777
8	21128	18	-0.012190245987666
8	23991	19	-0.025795432577272
8	26854	20	-0.0071768068139337
8	29717	21	0.058940054764713
8	32580	22	-0.066396190862482
8	36689	23	0.042385616591976
8	40850	24	-0.0053046701779953
8	45367	25	0.0078356364004626
8	49170	26	-0.013803459118612
8	53175	27	-0.004574207204213
8	57880	28	0.015757929892667
8	62643	29	0.018788244859833
8	67406	30	-0.01963780009343
8	72169	31	-0.033896481844648
8	77998	32	0.015735846763063
8	83891	33	-0.0020863750736073
8	89784	34	0.025877754071391
8	95677	35	-0.029137440481766
8	101570	36	-0.0027889062605229
8	108643	37	0.017042812816928
8	115786	38	8.5547960932519e-05
8	122929	39	-0.018554469053116
8	130072	40	-0.0052152423207492
8	137216	41	0.048440848881405
8	145653	42	-0.034112741866718
8	154166	43	0.024808628352023
8	162679	44	-0.014094325904605
8	171192	45	0.021500273028829
8	179665	46	-0.054348885508565
8	189546	47	0.014547306701489
8	199509	48	-0.0022240866059697
8	209472	49	0.0050931874526821
8	219435	50	-0.0041662793309014
8	230921	51	0.0030924003092676
8	242494	52	0.0054157230382164
8	254067	53	0.037471103310559
8	265640	54	-0.05400578407312
8	277213	55	0.011396759315782
8	288786	56	0.012398525044167
8	300359	57	-0.01665796520279
8	311932	58	-0.0085142276333903
8	323505	59	0.0059480038665545
8	335078	60	0.054483620479004
8	347434	61	0.0020172481729082
8	359790	62	-0.0066508929982472
8	372653	63	0.001951930672577
8	384472	64	-0.022438567102654
8	396150	65	-0.036876427168156
8	407723	66	0.034243850596896
8	419296	67	0.006099342410582
8	430869	68	-0.0054875134082977
8	442442	69	0.011081018585375
8	453855	70	-0.0052306322969444
8	465188	71	-0.014388387644431
8	476441	72	0.03814360542391
8	487614	73	-0.066343453428191
8	498707	74	0.051086359566802
8	509800	75	-0.021115326979068
8	520813	76	0.037442009003522
9	1436	5	1.1565087663652
9	1939	6	1.1883142423226
9	2824	7	1.1804283709916
9	3737	8	1.1786443373533
9	4650	9	1.1723574585004
9	5563	10	1.159337466769
9	6477	11	1.1988617963627
9	7886	12	1.1654425789418
9	9939	13	1.1835421226748
9	12032	14	1.1797119907796
9	14125	15	1.1558352166949
9	16218	16	1.1932956189315
9	18311	17	1.1749293615559
9	21128	18	1.1718711670424
9	23991	19	1.1663129424575
9	26854	20	1.1719650452881
9	29717	21	1.1968303886412
9	32580	22	1.1527731980618
9	36689	23	1.1898823679787
9	40850	24	1.1739700789996
9	45367	25	1.178665082705
9	49170	26	1.1709190579618
9	53175	27	1.1737067468565
9	57880	28	1.1811337488505
9	62643	29	1.1831299908486
9	67406	30	1.1694739183869
9	72169	31	1.1634196505029
9	77998	32	1.1801277088627
9	83891	33	1.174256671581
9	89784	34	1.1847195938334
9	95677	35	1.1653758239904
9	101570	36	1.1737388412296
9	108643	37	1.1810216595161
9	115786	38	1.1754990819841
9	122929	39	1.1686021256832
9	130072	40	1.172642713071
9	137216	41	1.1927510346786
9	145653	42	1.1639697994093
9	154166	43	1.184398454652
9	162679	44	1.1709349713044
9	171192	45	1.183707365748
9	179665	46	1.1566312940287
9	189546	47	1.1793231041065
9	199509	48	1.1738182213159
9	209472	49	1.1764237485128
9	219435	50	1.1732384293491
9	230921	51	1.1757252969726
9	242494	52	1.176745055667
9	254067	53	1.1892826702752
9	265640	54	1.1569270485317
9	277213	55	1.1784158578668
9	288786	56	1.1793801218004
9	300359	57	1.1691822581691
9	311932	58	1.1714015156286
9	323505	59	1.1763170927998
9	335078	60	1.195253688693
9	347434	61	1.1778385154062
9	359790	62	1.1746269583492
9	372653	63	1.1775852932818
9	384472	64	1.1684861314724
9	396150	65	1.1622842464938
9	407723	66	1.1869148662197
9	419296	67	1.1780141200782
9	430869	68	1.1739463376914
9	442442	69	1.1799387889756
9	453855	70	1.174308261326
9	465188	71	1.1706466285417
9	476441	72	1.1899418574671
9	487614	73	1.1528261012766
9	498707	74	1.1933382512864
9	509800	75	1.1685361803841
9	520813	76	1.1897690505326
10	1939	6	2415.7863412363
10	2824	7	2415.7863412363
10	3737	8	2415.1665731788
10	4650	9	2414.1698382099
10	5563	10	2413.0087048085
10	6477	11	2411.7893185191
10	7886	12	2410.5508388483
10	9939	13	2409.2837854422
10	12032	14	2408.0122848242
10	14125	15	2406.9544872612
10	16218	16	2406.0016920707
10	18311	17	2405.0534334151
10	21128	18	2404.0965319879
10	23991	19	2403.1454690611
10	26854	20	2402.1887195815
10	29717	21	2401.2318259045
10	32580	22	2400.2892614424
10	36689	23	2399.3300404391
10	40850	24	2398.3881263271
10	45367	25	2397.4390500817
10	49170	26	2396.4832018191
10	53175	27	2395.5320824292
10	57880	28	2394.5788556813
10	62643	29	2393.6199045925
10	67406	30	2392.6653186145
10	72169	31	2391.7185749843
10	77998	32	2390.7671941369
10	83891	33	2389.8148403845
10	89784	34	2388.872622281
10	95677	35	2387.9135678723
10	101570	36	2386.9653033785
10	108643	37	2386.0201588832
10	115786	38	2385.0714909295
10	122929	39	2384.1163829567
10	130072	40	2383.1700366922
10	137216	41	2382.2248812721
10	145653	42	2381.2812469967
10	154166	43	2380.3366306246
10	162679	44	2379.3829809553
10	171192	45	2378.4315058097
10	179665	46	2377.4852820347
10	189546	47	2376.5294665841
10	199509	48	2375.5829423562
10	209472	49	2374.634710303
10	219435	50	2373.6861324889
10	230921	51	2372.7304525143
10	242494	52	2371.7850538929
10	254067	53	2370.8293964127
10	265640	54	2369.8782243837
10	277213	55	2368.9286712448
10	288786	56	2367.9801642426
10	300359	57	2367.0252531266
10	311932	58	2366.081737192
10	323505	59	2365.133601739
10	335078	60	2364.183425701
10	347434	61	2363.2324838619
10	359790	62	2362.2797037155
10	372653	63	2361.3297460271
10	384472	64	2360.3809452379
10	396150	65	2359.4272598978
10	407723	66	2358.4693972926
10	419296	67	2357.5118592628
10	430869	68	2356.5695547139
10	442442	69	2355.6134456845
10	453855	70	2354.6687994873
10	465188	71	2353.7160595601
10	476441	72	2352.7656305964
10	487614	73	2351.8126790606
10	498707	74	2350.8611464903
10	509800	75	2349.9076616418
10	520813	76	2348.9525063544
11	1939	6	1578.1166743273
11	2824	7	1578.1166743273
11	3737	8	1578.3442499237
11	4650	9	1578.7102458021
11	5563	10	1579.1366079273
11	6477	11	1579.5843602084
11	7886	12	1580.0391234802
11	9939	13	1580.5043788776
11	12032	14	1580.971267269
11	14125	15	1581.7635582304
11	16218	16	1582.7286084965
11	18311	17	1583.6890638769
11	21128	18	1584.6582731949
11	23991	19	1585.6215689164
11	26854	20	1586.5906243324
11	29717	21	1587.5598258004
11	32580	22	1588.5145137478
11	36689	23	1589.486072476
11	40850	24	1590.4401017083
11	45367	25	1591.4013851956
11	49170	26	1592.3695278028
11	53175	27	1593.332880713
11	57880	28	1594.298368087
11	62643	29	1595.2696534302
11	67406	30	1596.2365175169
11	72169	31	1597.1954383859
11	77998	32	1598.1590561168
11	83891	33	1599.1236592662
11	89784	34	1600.0779964002
11	95677	35	1601.0493863923
11	101570	36	1602.0098476857
11	108643	37	1602.9671488516
11	115786	38	1603.9280187953
11	122929	39	1604.895411591
11	130072	40	1605.8539299825
11	137216	41	1606.8112422135
11	145653	42	1607.7670137342
11	154166	43	1608.7237799838
11	162679	44	1609.6896957196
11	171192	45	1610.6534089614
11	179665	46	1611.6118032886
11	189546	47	1612.5799126616
11	199509	48	1613.5386113068
11	209472	49	1614.4990397431
11	219435	50	1615.4598183874
11	230921	51	1616.4277905421
11	242494	52	1617.3853491023
11	254067	53	1618.3532984732
11	265640	54	1619.3167046998
11	277213	55	1620.2784712138
11	288786	56	1621.239178136
11	300359	57	1622.206371543
11	311932	58	1623.1620232007
11	323505	59	1624.1223537941
11	335078	60	1625.0847512195
11	347434	61	1626.047924296
11	359790	62	1627.0129593238
11	372653	63	1627.9751355909
11	384472	64	1628.9361400781
11	396150	65	1629.9020919427
11	407723	66	1630.8722748021
11	419296	67	1631.8421289101
11	430869	68	1632.7965536015
11	442442	69	1633.76496033
11	453855	70	1634.721756788
11	465188	71	1635.6867510797
11	476441	72	1636.6494046832
11	487614	73	1637.6146133058
11	498707	74	1638.5783847114
11	509800	75	1639.5441335058
11	520813	76	1640.5115742246
12	2824	7	0.8838096124817
12	3737	8	1.1557319935416
12	4650	9	1.2836546819813
12	5563	10	1.3001371949302
12	6477	11	1.3387011307364
12	7886	12	1.3158470270112
12	9939	13	1.3372683756385
12	12032	14	1.3627268797841
12	14125	15	1.3736229836338
12	16218	16	1.3628045862084
12	18311	17	1.3305895887431
12	21128	18	1.3356735896892
12	23991	19	1.3292343006892
12	26854	20	1.3761848984627
12	29717	21	1.3650106078904
12	32580	22	1.3596617280331
12	36689	23	1.3549160490481
12	40850	24	1.3243774628165
12	45367	25	1.3295322884229
12	49170	26	1.3849237200259
12	53175	27	1.382363496917
12	57880	28	1.3667073556994
12	62643	29	1.3436273005048
12	67406	30	1.3220673046707
12	72169	31	1.3248096202447
12	77998	32	1.3194804580475
12	83891	33	1.3242722861954
12	89784	34	1.3548303449215
12	95677	35	1.3519489102779
12	101570	36	1.3501723087015
12	108643	37	1.3800228132431
12	115786	38	1.3617954966275
12	122929	39	1.3727964762524
12	130072	40	1.365941487712
12	137216	41	1.3504890641437
12	145653	42	1.3256055154154
12	154166	43	1.3395937412151
12	162679	44	1.3850842547252
12	171192	45	1.330735209651
12	179665	46	1.342135020427
12	189546	47	1.3654892050487
12	199509	48	1.3240706176826
12	209472	49	1.3527539737398
12	219435	50	1.3509357349077
12	230921	51	1.3855775102768
12	242494	52	1.3757039946887
12	254067	53	1.3735061458227
12	265640	54	1.324326475578
12	277213	55	1.3684572748219
12	288786	56	1.3655966903243
12	300359	57	1.3311225673384
12	311932	58	1.3425111880335
12	323505	59	1.3662914634876
12	335078	60	1.3648347498118
12	347434	61	1.3930730190596
12	359790	62	1.3518517285735
12	372653	63	1.33735203229
12	384472	64	1.3720177687812
12	396150	65	1.3701684591397
12	407723	66	1.3905304038266
12	419296	67	1.3683709903863
12	430869	68	1.3423340744918
12	442442	69	1.3385810339269
12	453855	70	1.3599665848286
12	465188	71	1.3468730826654
12	476441	72	1.3647868090491
12	487614	73	1.3332612920732
12	498707	74	1.3763116431919
12	509800	75	1.3362821218436
12	520813	76	1.3485989145179
13	3737	8	0.2719223810599
13	4650	9	0.12792268843973
13	5563	10	0.016482512948913
13	6477	11	0.038563935806189
13	7886	12	-0.022854103725231
13	9939	13	0.021421348627318
13	12032	14	0.025458504145541
13	14125	15	0.010896103849789
13	16218	16	-0.010818397425427
13	18311	17	-0.032214997465359
13	21128	18	0.0050840009461888
13	23991	19	-0.006439289000016
13	26854	20	0.046950597773434
13	29717	21	-0.011174290572249
13	32580	22	-0.0053488798573278
13	36689	23	-0.0047456789849907
13	40850	24	-0.03053858623155
13	45367	25	0.0051548256063139
13	49170	26	0.055391431603012
13	53175	27	-0.0025602231088917
13	57880	28	-0.015656141217605
13	62643	29	-0.023080055194602
13	67406	30	-0.021559995834103
13	72169	31	0.0027423155740631
13	77998	32	-0.0053291621972589
13	83891	33	0.0047918281479349
13	89784	34	0.030558058726139
13	95677	35	-0.0028814346436719
13	101570	36	-0.0017766015763294
13	108643	37	0.029850504541575
13	115786	38	-0.018227316615619
13	122929	39	0.011000979624943
13	130072	40	-0.0068549885404643
13	137216	41	-0.015452423568294
13	145653	42	-0.02488354872831
13	154166	43	0.013988225799681
13	162679	44	0.045490513510142
13	171192	45	-0.054349045074208
13	179665	46	0.011399810775999
13	189546	47	0.023354184621726
13	199509	48	-0.041418587366161
13	209472	49	0.028683356057209
13	219435	50	-0.0018182388320553
13	230921	51	0.034641775369091
13	242494	52	-0.0098735155880996
13	254067	53	-0.0021978488659811
13	265640	54	-0.049179670244749
13	277213	55	0.04413079924395
13	288786	56	-0.0028605844976162
13	300359	57	-0.034474122985866
13	311932	58	0.011388620695075
13	323505	59	0.023780275454053
13	335078	60	-0.0014567136757693
13	347434	61	0.028238269247786
13	359790	62	-0.041221290486096
13	372653	63	-0.014499696283447
13	384472	64	0.034665736491149
13	396150	65	-0.0018493096414476
13	407723	66	0.020361944686903
13	419296	67	-0.022159413440306
13	430869	68	-0.026036915894542
13	442442	69	-0.0037530405648574
13	453855	70	0.021385550901647
13	465188	71	-0.013093502163191
13	476441	72	0.017913726383725
13	487614	73	-0.031525516975934
13	498707	74	0.043050351118715
13	509800	75	-0.040029521348311
13	520813	76	0.012316792674302
14	3737	8	1.2416340437654
14	4650	9	1.211693161067
14	5563	10	1.1780861552307
14	6477	11	1.187242335871
14	7886	12	1.1664394563836
14	9939	13	1.1816344512658
14	12032	14	1.1843327303581
14	14125	15	1.1801100813737
14	16218	16	1.1724223586695
14	18311	17	1.1640748142974
14	21128	18	1.1762895475226
14	23991	19	1.1722764244475
14	26854	20	1.1921995914554
14	29717	21	1.1724070855389
14	32580	22	1.1740695706135
14	36689	23	1.1740412997659
14	40850	24	1.164355405794
14	45367	25	1.1760054375678
14	49170	26	1.1955419172315
14	53175	27	1.1760763056692
14	57880	28	1.1710090283969
14	62643	29	1.1675670149668
14	67406	30	1.1671205875704
14	72169	31	1.1749991796034
14	77998	32	1.172169309169
14	83891	33	1.1756267433893
14	89784	34	1.1855643884275
14	95677	35	1.1745074597642
14	101570	36	1.174781594801
14	108643	37	1.1867429358176
14	115786	38	1.1699442388164
14	122929	39	1.1801023058662
14	130072	40	1.1738718445664
14	137216	41	1.1703458589485
14	145653	42	1.1662128264156
14	154166	43	1.1793600612404
14	162679	44	1.1922469108117
14	171192	45	1.1569822318218
14	179665	46	1.1786552512644
14	189546	47	1.1837918621192
14	199509	48	1.160870893336
14	209472	49	1.1848366994575
14	219435	50	1.17480492545
14	230921	51	1.1886537194831
14	242494	52	1.1733309673657
14	254067	53	1.1757697827041
14	265640	54	1.1584037582988
14	277213	55	1.1908053743883
14	288786	56	1.1751701964514
14	300359	57	1.1633719201709
14	311932	58	1.1786709983991
14	323505	59	1.1839757948538
14	335078	60	1.1755953406129
14	347434	61	1.1869320370304
14	359790	62	1.1620118080864
14	372653	63	1.1700615413451
14	384472	64	1.1878871705314
14	396150	65	1.1757238911714
14	407723	66	1.1841512159356
14	419296	67	1.1689392350093
14	430869	68	1.1665546247726
14	442442	69	1.1735839934119
14	453855	70	1.1828463018767
14	465188	71	1.170948764667
14	476441	72	1.1819642216127
14	487614	73	1.164405809287
14	498707	74	1.190913529153
14	509800	75	1.1617914109366
14	520813	76	1.1792861009837
15	6477	11	2415.6610717325
15	7886	12	2415.6610717325
15	9939	13	2414.907528492
15	12032	14	2413.8496822334
15	14125	15	2412.6737091349
15	16218	16	2411.4453065458
15	18311	17	2410.191744384
15	21128	18	2408.928155724
15	23991	19	2407.6562713998
15	26854	20	2406.6840624934
15	29717	21	2405.7323175776
15	32580	22	2404.7868153334
15	36689	23	2403.8298705749
15	40850	24	2402.8795988729
15	45367	25	2401.9315346235
15	49170	26	2400.9831759423
15	53175	27	2400.0352197905
15	57880	28	2399.080643543
15	62643	29	2398.1222234779
15	67406	30	2397.1615057122
15	72169	31	2396.2121096979
15	77998	32	2395.2603274017
15	83891	33	2394.3056352192
15	89784	34	2393.3587214173
15	95677	35	2392.409970199
15	101570	36	2391.4576606288
15	108643	37	2390.5112406198
15	115786	38	2389.5629563823
15	122929	39	2388.605747099
15	130072	40	2387.6569784119
15	137216	41	2386.713765863
15	145653	42	2385.767907348
15	154166	43	2384.8225353191
15	162679	44	2383.873375855
15	171192	45	2382.9235982532
15	179665	46	2381.972738601
15	189546	47	2381.0250926221
15	199509	48	2380.0741586599
15	209472	49	2379.1288227382
15	219435	50	2378.185326457
15	230921	51	2377.223164813
15	242494	52	2376.2844044993
15	254067	53	2375.3307441472
15	265640	54	2374.3754717946
15	277213	55	2373.4230780392
15	288786	56	2372.4741653509
15	300359	57	2371.520751312
15	311932	58	2370.5694761267
15	323505	59	2369.6261921547
15	335078	60	2368.677854091
15	347434	61	2367.722011202
15	359790	62	2366.7701892825
15	372653	63	2365.8247287862
15	384472	64	2364.8765325079
15	396150	65	2363.9224416915
15	407723	66	2362.9691694573
15	419296	67	2362.0147367613
15	430869	68	2361.0613483718
15	442442	69	2360.1131815838
15	453855	70	2359.1675143448
15	465188	71	2358.2090409626
15	476441	72	2357.2497066128
15	487614	73	2356.3071914925
15	498707	74	2355.3607008037
15	509800	75	2354.4093622982
15	520813	76	2353.4495937316
16	6477	11	1578.1626726352
16	7886	12	1578.1626726352
16	9939	13	1578.43936978
16	12032	14	1578.8278054055
16	14125	15	1579.2596165901
16	16218	16	1579.7106796093
16	18311	17	1580.1709810933
16	21128	18	1580.6349642538
16	23991	19	1581.1019935403
16	26854	20	1582.037461265
16	29717	21	1583.0014477475
16	32580	22	1583.959111263
16	36689	23	1584.9283644697
16	40850	24	1585.890858789
16	45367	25	1586.8511172635
16	49170	26	1587.811673956
16	53175	27	1588.7718229424
16	57880	28	1589.7386771739
16	62643	29	1590.7094246624
16	67406	30	1591.6824994059
16	72169	31	1592.6441067746
16	77998	32	1593.6081311181
16	83891	33	1594.5751027754
16	89784	34	1595.5341960043
16	95677	35	1596.4951502839
16	101570	36	1597.4597086832
16	108643	37	1598.4183017677
16	115786	38	1599.3787830602
16	122929	39	1600.3483041935
16	130072	40	1601.3092761664
16	137216	41	1602.264620536
16	145653	42	1603.2226449056
16	154166	43	1604.180176531
16	162679	44	1605.1415443067
16	171192	45	1606.1035381714
16	179665	46	1607.0666280035
16	189546	47	1608.0264628269
16	199509	48	1608.9896279247
16	209472	49	1609.947122979
16	219435	50	1610.9027547305
16	230921	51	1611.8772919234
16	242494	52	1612.8281267928
16	254067	53	1613.7940533478
16	265640	54	1614.7616126379
16	277213	55	1615.7262563054
16	288786	56	1616.6873741308
16	300359	57	1617.653051205
16	311932	58	1618.6165619148
16	323505	59	1619.5719786268
16	335078	60	1620.5325144371
16	347434	61	1621.5006516017
16	359790	62	1622.4647160778
16	372653	63	1623.4223373085
16	384472	64	1624.3827295098
16	396150	65	1625.3490920663
16	407723	66	1626.3146255119
16	419296	67	1627.2813343452
16	430869	68	1628.2469854401
16	442442	69	1629.2073477712
16	453855	70	1630.1651784042
16	465188	71	1631.1359798964
16	476441	72	1632.1076534297
16	487614	73	1633.0622914005
16	498707	74	1634.0209560748
16	509800	75	1634.9845309192
16	520813	76	1635.9566442538
17	7886	12	2417.8722244181
17	9939	13	2417.8722244181
17	12032	14	2417.2743486735
17	14125	15	2416.3833340445
17	16218	16	2415.3413637844
17	18311	17	2414.1901072875
17	21128	18	2412.9867772157
17	23991	19	2411.7617429782
17	26854	20	2410.5136771622
17	29717	21	2409.2443665464
17	32580	22	2407.982625992
17	36689	23	2406.9266053968
17	40850	24	2405.9801964308
17	45367	25	2405.0290728684
17	49170	26	2404.0740436263
17	53175	27	2403.1288630115
17	57880	28	2402.1785625233
17	62643	29	2401.2384406377
17	67406	30	2400.2811153986
17	72169	31	2399.3308250725
17	77998	32	2398.3842088612
17	83891	33	2397.4380316263
17	89784	34	2396.4906843196
17	95677	35	2395.5431161794
17	101570	36	2394.5837468621
17	108643	37	2393.6286592946
17	115786	38	2392.6738696665
17	122929	39	2391.7181489851
17	130072	40	2390.7710788563
17	137216	41	2389.8223019775
17	145653	42	2388.8678449757
17	154166	43	2387.9320260738
17	162679	44	2386.9875859002
17	171192	45	2386.0337149813
17	179665	46	2385.0817741512
17	189546	47	2384.1311845904
17	199509	48	2383.1851830593
17	209472	49	2382.2325055898
17	219435	50	2381.2832872532
17	230921	51	2380.3299429951
17	242494	52	2379.3827952867
17	254067	53	2378.4358225974
17	265640	54	2377.4815152469
17	277213	55	2376.5285083911
17	288786	56	2375.5738508886
17	300359	57	2374.6241024128
17	311932	58	2373.6734077078
17	323505	59	2372.7255373249
17	335078	60	2371.7722929644
17	347434	61	2370.8224984689
17	359790	62	2369.8761421476
17	372653	63	2368.9274665185
17	384472	64	2367.9752711486
17	396150	65	2367.0223878245
17	407723	66	2366.072896853
17	419296	67	2365.1229144481
17	430869	68	2364.1764102882
17	442442	69	2363.2244314332
17	453855	70	2362.2706598341
17	465188	71	2361.3201574946
17	476441	72	2360.3786524954
17	487614	73	2359.4304861063
17	498707	74	2358.4769881467
17	509800	75	2357.5281411612
17	520813	76	2356.5773368625
18	7886	12	1577.3507489096
18	9939	13	1577.3507489096
18	12032	14	1577.5702857627
18	14125	15	1577.8974616835
18	16218	16	1578.2800677251
18	18311	17	1578.7028031023
18	21128	18	1579.1446596244
18	23991	19	1579.5944858035
18	26854	20	1580.0527690565
18	29717	21	1580.5188532909
18	32580	22	1580.9821578367
18	36689	23	1581.7917987183
18	40850	24	1582.7503806176
18	45367	25	1583.7137377551
18	49170	26	1584.6810508072
18	53175	27	1585.6383885564
18	57880	28	1586.6009120326
18	62643	29	1587.5531259868
18	67406	30	1588.5227645673
18	72169	31	1589.4852777505
18	77998	32	1590.4440695625
18	83891	33	1591.4024167508
18	89784	34	1592.3619490601
18	95677	35	1593.3217050442
18	101570	36	1594.2934139948
18	108643	37	1595.2607861226
18	115786	38	1596.2278564796
18	122929	39	1597.195869864
18	130072	40	1598.1551214317
18	137216	41	1599.1161017008
18	145653	42	1600.0828351527
18	154166	43	1601.0306907771
18	162679	44	1601.9872785611
18	171192	45	1602.9534183918
18	179665	46	1603.9176033083
18	189546	47	1604.8804195747
18	199509	48	1605.8385887993
18	209472	49	1606.8035198301
18	219435	50	1607.7649472356
18	230921	51	1608.7305536317
18	242494	52	1609.689883776
18	254067	53	1610.6490366505
18	265640	54	1611.615618526
18	277213	55	1612.5808831798
18	288786	56	1613.5478197103
18	300359	57	1614.5097840745
18	311932	58	1615.4727068376
18	323505	59	1616.4327689521
18	335078	60	1617.3982741646
18	347434	61	1618.3602851396
18	359790	62	1619.3188137179
18	372653	63	1620.2796914363
18	384472	64	1621.2441341663
18	396150	65	1622.2092736987
18	407723	66	1623.170977246
18	419296	67	1624.133178548
18	430869	68	1625.0918568661
18	442442	69	1626.0560802966
18	453855	70	1627.0221195295
18	465188	71	1627.9848474534
18	476441	72	1628.9384623105
18	487614	73	1629.8988242382
18	498707	74	1630.8645863123
18	509800	75	1631.8256375901
18	520813	76	1632.7886713576
19	7886	12	0.98564389594301
19	9939	13	1.2017584153193
19	12032	14	1.2806815396698
19	14125	15	1.3154576650774
19	16218	16	1.3617458402318
19	18311	17	1.3182440034284
19	21128	18	1.3727577782571
19	23991	19	1.3435010994607
19	26854	20	1.3591243418038
19	29717	21	1.3196133091632
19	32580	22	1.3942048845421
19	36689	23	1.3535323524102
19	40850	24	1.3600978134058
19	45367	25	1.3607341153783
19	49170	26	1.3229593490015
19	53175	27	1.3593876667509
19	57880	28	1.3960591059009
19	62643	29	1.347261730277
19	67406	30	1.3267551423349
19	72169	31	1.3169471935648
19	77998	32	1.3578162472061
19	83891	33	1.3816640412736
19	89784	34	1.332162414793
19	95677	35	1.3122539284631
19	101570	36	1.3814237710172
19	108643	37	1.375057570118
19	115786	38	1.3520231995742
19	122929	39	1.3678561609497
19	130072	40	1.3162631089605
19	137216	41	1.3066249686603
19	145653	42	1.3636463543101
19	154166	43	1.3651529917917
19	162679	44	1.3741727545274
19	171192	45	1.3787232426905
19	179665	46	1.353109279601
19	189546	47	1.3324503587908
19	199509	48	1.3829950820693
19	209472	49	1.327469714164
19	219435	50	1.3765809574063
19	230921	51	1.318096356951
19	242494	52	1.343682238207
19	254067	53	1.3238067660373
19	265640	54	1.397208589639
19	277213	55	1.3332454718401
19	288786	56	1.3368296461289
19	300359	57	1.3733248870336
19	311932	58	1.3585615066333
19	323505	59	1.32224014244
19	335078	60	1.340077102726
19	347434	61	1.3301510387568
19	359790	62	1.336325023429
19	372653	63	1.3378018020977
19	384472	64	1.3517340151477
19	396150	65	1.3674994995914
19	407723	66	1.3718778404906
19	419296	67	1.3274751182742
19	430869	68	1.3648120612484
19	442442	69	1.3226606766488
19	453855	70	1.371944386781
19	465188	71	1.3586521942831
19	476441	72	1.3592916154012
19	487614	73	1.3647950622323
19	498707	74	1.3674777294814
19	509800	75	1.3391229857032
19	520813	76	1.3397035519955
20	9939	13	0.21611451937628
20	12032	14	0.078923124350533
20	14125	15	0.034776125407572
20	16218	16	0.04628817515441
20	18311	17	-0.04350183680337
20	21128	18	0.054513774828639
20	23991	19	-0.029256678796392
20	26854	20	0.015623242343168
20	29717	21	-0.039511032640668
20	32580	22	0.074591575378877
20	36689	23	-0.040672532131849
20	40850	24	0.0065654609956201
20	45367	25	0.00063630197244824
20	49170	26	-0.037774766376734
20	53175	27	0.036428317749385
20	57880	28	0.036671439149935
20	62643	29	-0.048797375623852
20	67406	30	-0.020506587942149
20	72169	31	-0.0098079487700187
20	77998	32	0.040869053641262
20	83891	33	0.023847794067485
20	89784	34	-0.04950162648054
20	95677	35	-0.019908486329991
20	101570	36	0.069169842554144
20	108643	37	-0.0063662008991634
20	115786	38	-0.023034370543817
20	122929	39	0.015832961375462
20	130072	40	-0.051593051989205
20	137216	41	-0.0096381403001646
20	145653	42	0.057021385649743
20	154166	43	0.0015066374816888
20	162679	44	0.0090197627356334
20	171192	45	0.0045504881630944
20	179665	46	-0.025613963089517
20	189546	47	-0.020658920810159
20	199509	48	0.050544723278549
20	209472	49	-0.055525367905342
20	219435	50	0.049111243242342
20	230921	51	-0.058484600455379
20	242494	52	0.025585881256041
20	254067	53	-0.01987547216966
20	265640	54	0.073401823601658
20	277213	55	-0.063963117798881
20	288786	56	0.0035841742887734
20	300359	57	0.036495240904735
20	311932	58	-0.014763380400312
20	323505	59	-0.036321364193363
20	335078	60	0.017836960286048
20	347434	61	-0.00992606396925
20	359790	62	0.0061739846722368
20	372653	63	0.0014767786687051
20	384472	64	0.013932213050047
20	396150	65	0.015765484443684
20	407723	66	0.0043783408992069
20	419296	67	-0.044402722216453
20	430869	68	0.037336942974252
20	442442	69	-0.042151384599658
20	453855	70	0.049283710132251
20	465188	71	-0.013292192497896
20	476441	72	0.00063942111806403
20	487614	73	0.0055034468311492
20	498707	74	0.0026826672490716
20	509800	75	-0.028354743778221
20	520813	76	0.00058056629229375
21	9939	13	1.2307250630334
21	12032	14	1.1963332882583
21	14125	15	1.1846928718504
21	16218	16	1.191114778316
21	18311	17	1.1599833178236
21	21128	18	1.1944958555314
21	23991	19	1.1655616754155
21	26854	20	1.1809134615711
21	29717	21	1.1613048602581
21	32580	22	1.2025698176891
21	36689	23	1.1622560434346
21	40850	24	1.1779955939324
21	45367	25	1.1760832321488
21	49170	26	1.1619896099282
21	53175	27	1.1877432919307
21	57880	28	1.1899353589588
21	62643	29	1.1593737886609
21	67406	30	1.1676614749363
21	72169	31	1.1706276416478
21	77998	32	1.1891060454707
21	83891	33	1.1848359941304
21	89784	34	1.1585893569486
21	95677	35	1.167215756994
21	101570	36	1.1999116536766
21	108643	37	1.1744632682006
21	115786	38	1.1679444454369
21	122929	39	1.181441195041
21	130072	40	1.1573408839931
21	137216	41	1.1702026458245
21	145653	42	1.1947559873703
21	154166	43	1.1765856932852
21	162679	44	1.1795169351379
21	171192	45	1.1782637155277
21	179665	46	1.1671501560286
21	189546	47	1.1678619389923
21	199509	48	1.1938066932779
21	209472	49	1.1564895480591
21	219435	50	1.1929401938416
21	230921	51	1.1552182291653
21	242494	52	1.1833287516836
21	254067	53	1.1677337308168
21	265640	54	1.202369712454
21	277213	55	1.1539825629782
21	288786	56	1.1758640961369
21	300359	57	1.1885673421721
21	311932	58	1.1709349180705
21	323505	59	1.1624242551531
21	335078	60	1.1806282303956
21	347434	61	1.1712019315362
21	359790	62	1.1766731270689
21	372653	63	1.1752328685943
21	384472	64	1.179974480277
21	396150	65	1.1814002056814
21	407723	66	1.177865482123
21	419296	67	1.1600481126086
21	430869	68	1.1883542405387
21	442442	69	1.1605826799869
21	453855	70	1.1927162455362
21	465188	71	1.1714207352428
21	476441	72	1.176013707115
21	487614	73	1.1778827249681
21	498707	74	1.177087460356
21	509800	75	1.1656702419985
21	520813	76	1.1750368716537
22	9939	13	0.82437053541553
22	12032	14	1.0510410677776
22	14125	15	1.1515579147601
22	16218	16	1.2626405561301
22	18311	17	1.2985462913763
22	21128	18	1.2970309224556
22	23991	19	1.3373174162604
22	26854	20	1.3239576226167
22	29717	21	1.3790149648773
22	32580	22	1.3569369077305
22	36689	23	1.36636077352
22	40850	24	1.3815977914099
22	45367	25	1.3796716958258
22	49170	26	1.3328595312079
22	53175	27	1.3595020377944
22	57880	28	1.3357642746996
22	62643	29	1.3829699263281
22	67406	30	1.3425282426275
22	72169	31	1.3263817967931
22	77998	32	1.3640677328092
22	83891	33	1.3395516837287
22	89784	34	1.3325806518939
22	95677	35	1.36730277927
22	101570	36	1.3866628040624
22	108643	37	1.3516804221662
22	115786	38	1.3342458310136
22	122929	39	1.323392886164
22	130072	40	1.3420359158934
22	137216	41	1.3445260446574
22	145653	42	1.3316963930103
22	154166	43	1.3364070850366
22	162679	44	1.3871395630283
22	171192	45	1.3570331331802
22	179665	46	1.3332022815065
22	189546	47	1.3372365073075
22	199509	48	1.3864590739023
22	209472	49	1.3736956035266
22	219435	50	1.3631908308728
22	230921	51	1.3652656303747
22	242494	52	1.3810839523083
22	254067	53	1.3518247832285
22	265640	54	1.3784225594686
22	277213	55	1.3279534462121
22	288786	56	1.3628209727499
22	300359	57	1.3726147849229
22	311932	58	1.3565928957442
22	323505	59	1.356561320914
22	335078	60	1.3864709627299
22	347434	61	1.3868509534869
22	359790	62	1.3532447909214
22	372653	63	1.3369622271197
22	384472	64	1.3756591825102
22	396150	65	1.3781442140882
22	407723	66	1.3305288423402
22	419296	67	1.369248239482
22	430869	68	1.3767529516998
22	442442	69	1.3782547410584
22	453855	70	1.325571711299
22	465188	71	1.32092844019
22	476441	72	1.3558748211168
22	487614	73	1.3758790237383
22	498707	74	1.3653021980523
22	509800	75	1.368282513237
22	520813	76	1.3759500962786
23	12032	14	0.22667053236211
23	14125	15	0.10051684698248
23	16218	16	0.11108264136999
23	18311	17	0.035905735246178
23	21128	18	-0.0015153689206744
23	23991	19	0.040286493804778
23	26854	20	-0.013359793643695
23	29717	21	0.055057342260594
23	32580	22	-0.022078057146774
23	36689	23	0.0094238657894627
23	40850	24	0.01523701788988
23	45367	25	-0.0019260955840763
23	49170	26	-0.046812164617836
23	53175	27	0.026642506586487
23	57880	28	-0.023737763094816
23	62643	29	0.047205651628448
23	67406	30	-0.040441683700515
23	72169	31	-0.01614644583444
23	77998	32	0.037685936016108
23	83891	33	-0.024516049080477
23	89784	34	-0.006971031834837
23	95677	35	0.034722127376073
23	101570	36	0.019360024792453
23	108643	37	-0.034982381896245
23	115786	38	-0.017434591152576
23	122929	39	-0.010852944849628
23	130072	40	0.018643029729396
23	137216	41	0.00249012876405
23	145653	42	-0.012829651647087
23	154166	43	0.0047106920262903
23	162679	44	0.050732477991712
23	171192	45	-0.030106429848173
23	179665	46	-0.023830851673692
23	189546	47	0.00403422580098
23	199509	48	0.049222566594835
23	209472	49	-0.012763470375729
23	219435	50	-0.010504772653803
23	230921	51	0.0020747995019583
23	242494	52	0.015818321933556
23	254067	53	-0.029259169079726
23	265640	54	0.026597776240022
23	277213	55	-0.050469113256493
23	288786	56	0.034867526537863
23	300359	57	0.009793812172979
23	311932	58	-0.016021889178724
23	323505	59	-3.1574830143155e-05
23	335078	60	0.029909641815897
23	347434	61	0.00037999075698281
23	359790	62	-0.033606162565494
23	372653	63	-0.016282563801722
23	384472	64	0.038696955390506
23	396150	65	0.0024850315780072
23	407723	66	-0.047615371747977
23	419296	67	0.038719397141702
23	430869	68	0.0075047122178755
23	442442	69	0.0015017893585738
23	453855	70	-0.052683029759355
23	465188	71	-0.0046432711090729
23	476441	72	0.034946380926865
23	487614	73	0.020004202621446
23	498707	74	-0.010576825685954
23	509800	75	0.0029803151846863
23	520813	76	0.00766758304154
24	12032	14	1.2182253288638
24	14125	15	1.1935882062483
24	16218	16	1.2048977821424
24	18311	17	1.1840808368978
24	21128	18	1.1722966599082
24	23991	19	1.1877172080819
24	26854	20	1.1698193410345
24	29717	21	1.1950638413795
24	32580	22	1.1684694389812
24	36689	23	1.1792521070094
24	40850	24	1.1819652947568
24	45367	25	1.1761575392496
24	49170	26	1.1594789190033
24	53175	27	1.1845436487743
24	57880	28	1.1670157991779
24	62643	29	1.1926922616043
24	67406	30	1.161902217399
24	72169	31	1.1690388821356
24	77998	32	1.1884259805697
24	83891	33	1.1669274593237
24	89784	34	1.1722635318026
24	95677	35	1.1876364589268
24	101570	36	1.1836087696394
24	108643	37	1.1640375148834
24	115786	38	1.1689772915668
24	122929	39	1.170593170766
24	130072	40	1.1809928277714
24	137216	41	1.1758913478406
24	145653	42	1.1703416672506
24	154166	43	1.1762059597647
24	162679	44	1.1941220781003
24	171192	45	1.1658479789748
24	179665	46	1.1668756913156
24	189546	47	1.1760293160307
24	199509	48	1.1935760518743
24	209472	49	1.1722810594343
24	219435	50	1.1725432177712
24	230921	51	1.1767781678412
24	242494	52	1.1821318305126
24	254067	53	1.1659078990949
24	265640	54	1.185572827955
24	277213	55	1.1581248339603
24	288786	56	1.1874281930833
24	300359	57	1.179693633298
24	311932	58	1.1704344955864
24	323505	59	1.1756608121431
24	335078	60	1.1871235616897
24	347434	61	1.1772751068348
24	359790	62	1.1645494133984
24	372653	63	1.1694694521409
24	384472	64	1.189431644625
24	396150	65	1.177548837493
24	407723	66	1.1591340809482
24	419296	67	1.1890666513585
24	430869	68	1.1791456755052
24	442442	69	1.1772277005511
24	453855	70	1.157330482404
24	465188	71	1.1724563487098
24	476441	72	1.1870569514877
24	487614	73	1.1832461444051
24	498707	74	1.1726171057466
24	509800	75	1.1772253719736
24	520813	76	1.1791590808063
25	18311	17	2415.8059847656
25	21128	18	2415.8059847656
25	23991	19	2415.1547396402
25	26854	20	2414.155616676
25	29717	21	2413.0031017929
25	32580	22	2411.7927922304
25	36689	23	2410.5506135207
25	40850	24	2409.3012721065
25	45367	25	2408.0329724749
25	49170	26	2406.9701713033
25	53175	27	2406.020007932
25	57880	28	2405.0645370602
25	62643	29	2404.1230174684
25	67406	30	2403.1713612399
25	72169	31	2402.215459707
25	77998	32	2401.2669835311
25	83891	33	2400.3305592909
25	89784	34	2399.3786027757
25	95677	35	2398.4356632424
25	101570	36	2397.4839619058
25	108643	37	2396.5248698954
25	115786	38	2395.5628374049
25	122929	39	2394.6034413226
25	130072	40	2393.6594446572
25	137216	41	2392.7121976138
25	145653	42	2391.7600870407
25	154166	43	2390.8170369697
25	162679	44	2389.8762071435
25	171192	45	2388.9257295305
25	179665	46	2387.9731407543
25	189546	47	2387.0242566043
25	199509	48	2386.0724133507
25	209472	49	2385.1187797004
25	219435	50	2384.1717738119
25	230921	51	2383.2231592241
25	242494	52	2382.2752664672
25	254067	53	2381.325633015
25	265640	54	2380.3748196505
25	277213	55	2379.4206647697
25	288786	56	2378.4664852922
25	300359	57	2377.5138357998
25	311932	58	2376.5639407431
25	323505	59	2375.6186828866
25	335078	60	2374.6575060004
25	347434	61	2373.7122717148
25	359790	62	2372.7667948779
25	372653	63	2371.8175200187
25	384472	64	2370.8663221209
25	396150	65	2369.9187359952
25	407723	66	2368.9665917453
25	419296	67	2368.0115062123
25	430869	68	2367.0634083794
25	442442	69	2366.1125596183
25	453855	70	2365.1649480201
25	465188	71	2364.2166932204
25	476441	72	2363.2658022569
25	487614	73	2362.3115092844
25	498707	74	2361.3644826707
25	509800	75	2360.4154681179
25	520813	76	2359.4658151857
26	18311	17	1578.1094613262
26	21128	18	1578.1094613262
26	23991	19	1578.3485951368
26	26854	20	1578.7154678749
26	29717	21	1579.138665325
26	32580	22	1579.5830846801
26	36689	23	1580.0392062189
26	40850	24	1580.4979578657
26	45367	25	1580.9636708712
26	49170	26	1581.7476724563
26	53175	27	1582.7100570519
26	57880	28	1583.6778174145
26	62643	29	1584.6314470517
26	67406	30	1585.5953437062
26	72169	31	1586.5635402687
26	77998	32	1587.5242159683
26	83891	33	1588.4726847159
26	89784	34	1589.4368855199
26	95677	35	1590.3919533622
26	101570	36	1591.3558957046
26	108643	37	1592.3273237813
26	115786	38	1593.3017301597
26	122929	39	1594.2734662201
26	130072	40	1595.2296047918
26	137216	41	1596.1890355488
26	145653	42	1597.1533923913
26	154166	43	1598.1085721934
26	162679	44	1599.0615031943
26	171192	45	1600.024206073
26	179665	46	1600.9890472693
26	189546	47	1601.9501361903
26	199509	48	1602.9142222749
26	209472	49	1603.8801217852
26	219435	50	1604.8393082852
26	230921	51	1605.8001241768
26	242494	52	1606.7602089522
26	254067	53	1607.7220568126
26	265640	54	1608.6850997619
26	277213	55	1609.6515272073
26	288786	56	1610.6179795647
26	300359	57	1611.5828822581
26	311932	58	1612.5449950881
26	323505	59	1613.5024110731
26	335078	60	1614.4759508418
26	347434	61	1615.4333429523
26	359790	62	1616.3909807345
26	372653	63	1617.3524653893
26	384472	64	1618.3158978177
26	396150	65	1619.2756720185
26	407723	66	1620.2400629716
26	419296	67	1621.2074330384
26	430869	68	1622.1677255286
26	442442	69	1623.1308043292
26	453855	70	1624.0906043304
26	465188	71	1625.0510558058
26	476441	72	1626.0141773513
26	487614	73	1626.9807446646
26	498707	74	1627.9399521565
26	509800	75	1628.9011731567
26	520813	76	1629.8630407481
27	21128	18	0.93256845913125
27	23991	19	1.1619320669591
27	26854	20	1.2499154497146
27	29717	21	1.3120574189485
27	32580	22	1.3126564018508
27	36689	23	1.3261022273882
27	40850	24	1.3685203630308
27	45367	25	1.3744524829453
27	49170	26	1.3296534946149
27	53175	27	1.3666117276689
27	57880	28	1.33285188219
27	62643	29	1.3328630551114
27	67406	30	1.3390214035617
27	72169	31	1.3123259657358
27	77998	32	1.3416990086653
27	83891	33	1.3172574325184
27	89784	34	1.3434809960378
27	95677	35	1.3588472011545
27	101570	36	1.3730838409902
27	108643	37	1.3692048092904
27	115786	38	1.3727046552355
27	122929	39	1.3656621276908
27	130072	40	1.3187054017268
27	137216	41	1.3841598853515
27	145653	42	1.3077700970418
27	154166	43	1.3315353575342
27	162679	44	1.3559754135818
27	171192	45	1.3195701883899
27	179665	46	1.3344561200127
27	189546	47	1.323567411069
27	199509	48	1.3500380157369
27	209472	49	1.3251584223869
27	219435	50	1.3248622191391
27	230921	51	1.3198967218923
27	242494	52	1.3371850677733
27	254067	53	1.3319962800373
27	265640	54	1.3855122504316
27	277213	55	1.3179741730154
27	288786	56	1.3134402334491
27	300359	57	1.3566908833658
27	311932	58	1.3437828962664
27	323505	59	1.3683547372353
27	335078	60	1.3279773280977
27	347434	61	1.3656808593242
27	359790	62	1.3471020064198
27	372653	63	1.3365002616759
27	384472	64	1.3381332284937
27	396150	65	1.3674427306275
27	407723	66	1.3730841977153
27	419296	67	1.3597541297887
27	430869	68	1.3109905608052
27	442442	69	1.3513502037614
27	453855	70	1.3414892358784
27	465188	71	1.368510437663
27	476441	72	1.3588455379328
27	487614	73	1.3720403346531
27	498707	74	1.3482386074158
27	509800	75	1.3834273029656
27	520813	76	1.3735879180671
28	23991	19	0.22936360782789
28	26854	20	0.087983382755445
28	29717	21	0.06214196923397
28	32580	22	0.00059898290225324
28	36689	23	0.013445825537355
28	40850	24	0.04241813564265
28	45367	25	0.0059321199144784
28	49170	26	-0.04479898833034
28	53175	27	0.036958233053945
28	57880	28	-0.033759845478892
28	62643	29	1.1172921417613e-05
28	67406	30	0.0061583484502465
28	72169	31	-0.026695437825871
28	77998	32	0.02937304292953
28	83891	33	-0.024441576146925
28	89784	34	0.026223563519395
28	95677	35	0.015366205116738
28	101570	36	0.014236639835704
28	108643	37	-0.0038790316998596
28	115786	38	0.0034998459451612
28	122929	39	-0.0070425275447568
28	130072	40	-0.046956725963969
28	137216	41	0.06545448362467
28	145653	42	-0.076389788309721
28	154166	43	0.023765260492466
28	162679	44	0.024440056047625
28	171192	45	-0.036405225191943
28	179665	46	0.014885931622832
28	189546	47	-0.010888708943728
28	199509	48	0.026470604667848
28	209472	49	-0.024879593349988
28	219435	50	-0.00029620324781021
28	230921	51	-0.0049654972467237
28	242494	52	0.017288345880947
28	254067	53	-0.005188787736029
28	265640	54	0.053515970394305
28	277213	55	-0.067538077416199
28	288786	56	-0.0045339395662831
28	300359	57	0.043250649916754
28	311932	58	-0.012907987099456
28	323505	59	0.024571840968965
28	335078	60	-0.040377409137643
28	347434	61	0.037703531226516
28	359790	62	-0.018578852904432
28	372653	63	-0.010601744743854
28	384472	64	0.0016329668177395
28	396150	65	0.029309502133852
28	407723	66	0.0056414670877618
28	419296	67	-0.013330067926556
28	430869	68	-0.048763568983554
28	442442	69	0.040359642956238
28	453855	70	-0.0098609678829589
28	465188	71	0.027021201784574
28	476441	72	-0.0096648997302582
28	487614	73	0.013194796720308
28	498707	74	-0.023801727237294
28	509800	75	0.035188695549868
28	520813	76	-0.0098393848985889
29	23991	19	1.2304242067858
29	26854	20	1.1969795134355
29	29717	21	1.1931519595074
29	32580	22	1.1737209752435
29	36689	23	1.1784837601671
29	40850	24	1.1902442620648
29	45367	25	1.1785084235
29	49170	26	1.1600039700646
29	53175	27	1.1883334510609
29	57880	28	1.1636712633026
29	62643	29	1.1745196432859
29	67406	30	1.1768035037334
29	72169	31	1.1650724078865
29	77998	32	1.1844444375167
29	83891	33	1.1659964460934
29	89784	34	1.1835241702575
29	95677	35	1.1808147318575
29	101570	36	1.181187803023
29	108643	37	1.1750075688108
29	115786	38	1.1776160463174
29	122929	39	1.1737969616396
29	130072	40	1.1589029692703
29	137216	41	1.1988513257447
29	145653	42	1.1492174791955
29	154166	43	1.1820776257565
29	162679	44	1.1836293398283
29	171192	45	1.1622908676573
29	179665	46	1.1793810630742
29	189546	47	1.1705898100655
29	199509	48	1.1839655935145
29	209472	49	1.1661949853803
29	219435	50	1.174031603194
29	230921	51	1.1723047360719
29	242494	52	1.1802980530456
29	254067	53	1.1728081561432
29	265640	54	1.1949522450456
29	277213	55	1.1523383263807
29	288786	56	1.172134504313
29	300359	57	1.1898187918674
29	311932	58	1.1708679746158
29	323505	59	1.1843492582588
29	335078	60	1.161355481797
29	347434	61	1.1885250726178
29	359790	62	1.1691783728775
29	372653	63	1.1712785232533
29	384472	64	1.1752995081192
29	396150	65	1.1858607031507
29	407723	66	1.1783435647354
29	419296	67	1.1714585150265
29	430869	68	1.1580435447889
29	442442	69	1.1885612459892
29	453855	70	1.1717484157115
29	465188	71	1.1851655982578
29	476441	72	1.1726174139767
29	487614	73	1.1807888415183
29	498707	74	1.1675316403941
29	509800	75	1.1887132463229
29	520813	76	1.1732441133406
30	32580	22	2415.6755290915
30	36689	23	2415.6755290915
30	40850	24	2414.9197884463
30	45367	25	2413.8709064424
30	49170	26	2412.6982260478
30	53175	27	2411.4699989798
30	57880	28	2410.2110085736
30	62643	29	2408.9485670237
30	67406	30	2407.691531352
30	72169	31	2406.7077699092
30	77998	32	2405.7640153912
30	83891	33	2404.8150072857
30	89784	34	2403.8657247777
30	95677	35	2402.9288417255
30	101570	36	2401.9807541412
30	108643	37	2401.0243015569
30	115786	38	2400.0692840803
30	122929	39	2399.1142891954
30	130072	40	2398.1629106796
30	137216	41	2397.2071922701
30	145653	42	2396.255170799
30	154166	43	2395.3018894773
30	162679	44	2394.358103518
30	171192	45	2393.420011341
30	179665	46	2392.4689967526
30	189546	47	2391.5223603621
30	199509	48	2390.5716273146
30	209472	49	2389.6127866004
30	219435	50	2388.6627191324
30	230921	51	2387.7099229501
30	242494	52	2386.7661044401
30	254067	53	2385.8142861931
30	265640	54	2384.8653459849
30	277213	55	2383.912820406
30	288786	56	2382.9591428946
30	300359	57	2382.0106215243
30	311932	58	2381.0606400807
30	323505	59	2380.1136450309
30	335078	60	2379.1545310441
30	347434	61	2378.2115397148
30	359790	62	2377.2542007831
30	372653	63	2376.3114698259
30	384472	64	2375.3612467943
30	396150	65	2374.406331362
30	407723	66	2373.4630272649
30	419296	67	2372.5106388463
30	430869	68	2371.5559938104
30	442442	69	2370.6085702393
30	453855	70	2369.6576281121
30	465188	71	2368.7159642127
30	476441	72	2367.765591144
30	487614	73	2366.8097690088
30	498707	74	2365.858723772
30	509800	75	2364.9081448291
30	520813	76	2363.9559472657
31	32580	22	1578.1573639689
31	36689	23	1578.1573639689
31	40850	24	1578.4348679893
31	45367	25	1578.8200119874
31	49170	26	1579.2506141076
31	53175	27	1579.7016126765
31	57880	28	1580.1639073826
31	62643	29	1580.627469331
31	67406	30	1581.0890462697
31	72169	31	1582.0134489192
31	77998	32	1582.969342229
31	83891	33	1583.9305566996
31	89784	34	1584.8920491012
31	95677	35	1585.8409825638
31	101570	36	1586.8012646725
31	108643	37	1587.7700193748
31	115786	38	1588.7373205097
31	122929	39	1589.704598763
31	130072	40	1590.668214133
31	137216	41	1591.636225217
31	145653	42	1592.6004918115
31	154166	43	1593.5660344614
31	162679	44	1594.5219596168
31	171192	45	1595.4721177556
31	179665	46	1596.4353645165
31	189546	47	1597.3941767663
31	199509	48	1598.3571383655
31	209472	49	1599.3283119136
31	219435	50	1600.2905993722
31	230921	51	1601.2556506433
31	242494	52	1602.2116087684
31	254067	53	1603.1756695248
31	265640	54	1604.1368152248
31	277213	55	1605.1015924104
31	288786	56	1606.0675363466
31	300359	57	1607.0282578208
31	311932	58	1607.9904581485
31	323505	59	1608.949633671
31	335078	60	1609.9210840072
31	347434	61	1610.8762043118
31	359790	62	1611.8458567616
31	372653	63	1612.8007133454
31	384472	64	1613.7631583689
31	396150	65	1614.7303561475
31	407723	66	1615.6857932433
31	419296	67	1616.6504315045
31	430869	68	1617.6173554091
31	442442	69	1618.5769649651
31	453855	70	1619.5401383322
31	465188	71	1620.4939141339
31	476441	72	1621.456511124
31	487614	73	1622.4246272678
31	498707	74	1623.3879050715
31	509800	75	1624.3507105839
31	520813	76	1625.3151555359
32	36689	23	0.98094131815177
32	40850	24	1.1642722410527
32	45367	25	1.2612322757948
32	49170	26	1.3453079475743
32	53175	27	1.3256579696589
32	57880	28	1.353790830555
32	62643	29	1.3468146570519
32	67406	30	1.3808054765355
32	72169	31	1.365302476285
32	77998	32	1.3261625110989
32	83891	33	1.3663039641036
32	89784	34	1.3581952231911
32	95677	35	1.3464238512556
32	101570	36	1.3841686074658
32	108643	37	1.373030249568
32	115786	38	1.3415887810601
32	122929	39	1.3334277791251
32	130072	40	1.3399057837822
32	137216	41	1.3734273513919
32	145653	42	1.31264237053
32	154166	43	1.3466025502742
32	162679	44	1.3267443816237
32	171192	45	1.3317728705439
32	179665	46	1.3903395284012
32	189546	47	1.3747395376725
32	199509	48	1.3495371247564
32	209472	49	1.3438864799881
32	219435	50	1.3717990564435
32	230921	51	1.3802994570741
32	242494	52	1.3797785921385
32	254067	53	1.3832615945158
32	265640	54	1.3725021295886
32	277213	55	1.3822946356192
32	288786	56	1.3634306110253
32	300359	57	1.3838973292167
32	311932	58	1.3623769792841
32	323505	59	1.3859057833976
32	335078	60	1.3312492043964
32	347434	61	1.3341927871732
32	359790	62	1.3790712998787
32	372653	63	1.3328194804974
32	384472	64	1.331059225728
32	396150	65	1.3223501161603
32	407723	66	1.3657643607013
32	419296	67	1.3326418405274
32	430869	68	1.3524824572543
32	442442	69	1.3310828184735
32	453855	70	1.3177835394287
32	465188	71	1.3655284985913
32	476441	72	1.3552864544875
32	487614	73	1.3831365806098
32	498707	74	1.3791905138112
32	509800	75	1.3633709935676
32	520813	76	1.3224199529101
33	40850	24	0.18333092290094
33	45367	25	0.096960034742074
33	49170	26	0.084075671779478
33	53175	27	-0.01964997791538
33	57880	28	0.028132860896106
33	62643	29	-0.0069761735030749
33	67406	30	0.033990819483599
33	72169	31	-0.015503000250537
33	77998	32	-0.039139965186043
33	83891	33	0.040141453004624
33	89784	34	-0.0081087409124605
33	95677	35	-0.011771371935463
33	101570	36	0.037744756210197
33	108643	37	-0.011138357897874
33	115786	38	-0.03144146850784
33	122929	39	-0.0081610019350549
33	130072	40	0.0064780046571136
33	137216	41	0.033521567609736
33	145653	42	-0.060784980861914
33	154166	43	0.033960179744177
33	162679	44	-0.019858168650507
33	171192	45	0.005028488920233
33	179665	46	0.058566657857244
33	189546	47	-0.015599990728604
33	199509	48	-0.025202412916177
33	209472	49	-0.0056506447682394
33	219435	50	0.027912576455386
33	230921	51	0.0085004006306186
33	242494	52	-0.00052086493558989
33	254067	53	0.003483002377294
33	265640	54	-0.010759464927258
33	277213	55	0.0097925060305755
33	288786	56	-0.01886402459387
33	300359	57	0.020466718191394
33	311932	58	-0.021520349932608
33	323505	59	0.023528804113481
33	335078	60	-0.05465657900114
33	347434	61	0.0029435827767978
33	359790	62	0.044878512705471
33	372653	63	-0.046251819381235
33	384472	64	-0.0017602547694775
33	396150	65	-0.0087091095677161
33	407723	66	0.043414244541051
33	419296	67	-0.033122520173856
33	430869	68	0.019840616726829
33	442442	69	-0.021399638780731
33	453855	70	-0.013299279044893
33	465188	71	0.04774495916261
33	476441	72	-0.010242044103748
33	487614	73	0.027850126122303
33	498707	74	-0.0039460667985898
33	509800	75	-0.015819520243643
33	520813	76	-0.040951040657466
34	40850	24	1.2177510379654
34	45367	25	1.2004988593808
34	49170	26	1.2023815287717
34	53175	27	1.1678871076802
34	57880	28	1.1847148046104
34	62643	29	1.1729316780118
34	67406	30	1.1881645249343
34	72169	31	1.1709962204852
34	77998	32	1.1616802026504
34	83891	33	1.1893638723528
34	89784	34	1.173096594673
34	95677	35	1.1713573011248
34	101570	36	1.1896083494291
34	108643	37	1.172788411786
34	115786	38	1.1647755608886
34	122929	39	1.1719209870493
34	130072	40	1.1769511410548
34	137216	41	1.1875889658823
34	145653	42	1.1543016684452
34	154166	43	1.1862068204189
34	162679	44	1.1678683328537
34	171192	45	1.176076857549
34	179665	46	1.1969422921834
34	189546	47	1.1713889801593
34	199509	48	1.1671319302364
34	209472	49	1.1732231847669
34	219435	50	1.1856420597123
34	230921	51	1.1796562589471
34	242494	52	1.1766299793297
34	254067	53	1.1781341578649
34	265640	54	1.1728894046874
34	277213	55	1.1801880916274
34	288786	56	1.1698075615795
34	300359	57	1.1838300928834
34	311932	58	1.1688888231702
34	323505	59	1.1849607017188
34	335078	60	1.1569018804785
34	347434	61	1.1755273368934
34	359790	62	1.1916843392291
34	372653	63	1.1596574072909
34	384472	64	1.1738634868875
34	396150	65	1.1712283003403
34	407723	66	1.1904095794082
34	419296	67	1.1638674240783
34	430869	68	1.1819393113166
34	442442	69	1.1675644897413
34	453855	70	1.1695576153014
34	465188	71	1.1918208168578
34	476441	72	1.172263688034
34	487614	73	1.1862503934831
34	498707	74	1.1754628886821
34	509800	75	1.1708052660855
34	520813	76	1.1609559496386
35	53175	27	2415.5368156625
35	57880	28	2415.5368156625
35	62643	29	2414.6612132501
35	67406	30	2413.5640561725
35	72169	31	2412.3697665607
35	77998	32	2411.1290673901
35	83891	33	2409.8725183965
35	89784	34	2408.6155870089
35	95677	35	2407.4140436749
35	101570	36	2406.4707288289
35	108643	37	2405.5205170279
35	115786	38	2404.5658251252
35	122929	39	2403.6158900625
35	130072	40	2402.6622418726
35	137216	41	2401.705403643
35	145653	42	2400.7557252111
35	154166	43	2399.7964981172
35	162679	44	2398.8493509357
35	171192	45	2397.9038282305
35	179665	46	2396.9610429055
35	189546	47	2396.0132886713
35	199509	48	2395.0691393024
35	209472	49	2394.1138093958
35	219435	50	2393.1603312766
35	230921	51	2392.2100882153
35	242494	52	2391.2623137694
35	254067	53	2390.3148922502
35	265640	54	2389.3694690433
35	277213	55	2388.4176321367
35	288786	56	2387.4602946539
35	300359	57	2386.5076167334
35	311932	58	2385.5586064614
35	323505	59	2384.6104856814
35	335078	60	2383.6570266148
35	347434	61	2382.7059602013
35	359790	62	2381.7534020717
35	372653	63	2380.8043251566
35	384472	64	2379.8553121007
35	396150	65	2378.9006285003
35	407723	66	2377.958086764
35	419296	67	2377.0038607388
35	430869	68	2376.0537569092
35	442442	69	2375.1066039737
35	453855	70	2374.1589012491
35	465188	71	2373.2046218463
35	476441	72	2372.2548785654
35	487614	73	2371.3048134539
35	498707	74	2370.3494354398
35	509800	75	2369.4019757366
35	520813	76	2368.4561934504
36	53175	27	1578.2082988154
36	57880	28	1578.2082988154
36	62643	29	1578.5298154522
36	67406	30	1578.9326858046
36	72169	31	1579.3712227168
36	77998	32	1579.8268009769
36	83891	33	1580.2881992096
36	89784	34	1580.749737855
36	95677	35	1581.2980908938
36	101570	36	1582.2535388768
36	108643	37	1583.2159725251
36	115786	38	1584.1829438992
36	122929	39	1585.1450972492
36	130072	40	1586.1110114865
36	137216	41	1587.0801567938
36	145653	42	1588.0420502126
36	154166	43	1589.01361511
36	162679	44	1589.9729447206
36	171192	45	1590.930628961
36	179665	46	1591.885540612
36	189546	47	1592.8454850838
36	199509	48	1593.801778323
36	209472	49	1594.7693959074
36	219435	50	1595.7351378854
36	230921	51	1596.6976031959
36	242494	52	1597.657568139
36	254067	53	1598.6171756163
36	265640	54	1599.5747590782
36	277213	55	1600.5388387349
36	288786	56	1601.5084897168
36	300359	57	1602.4734212039
36	311932	58	1603.4346378688
36	323505	59	1604.3949536011
36	335078	60	1605.3606762821
36	347434	61	1606.3239755342
36	359790	62	1607.2887856904
36	372653	63	1608.2500698557
36	384472	64	1609.2112893397
36	396150	65	1610.1782523049
36	407723	66	1611.1329172337
36	419296	67	1612.0994167384
36	430869	68	1613.0617410261
36	442442	69	1614.021076465
36	453855	70	1614.9809687641
36	465188	71	1615.9475223329
36	476441	72	1616.9094814342
36	487614	73	1617.8717665067
36	498707	74	1618.839432817
36	509800	75	1619.7990789693
36	520813	76	1620.7570261285
37	57880	28	1.0619056992514
37	62643	29	1.220334532603
37	67406	30	1.2720654062982
37	72169	31	1.3327997186973
37	77998	32	1.3387116886551
37	83891	33	1.3134006535279
37	89784	34	1.338185585941
37	95677	35	1.3565479291468
37	101570	36	1.3732448221562
37	108643	37	1.3405061049343
37	115786	38	1.3457842548111
37	122929	39	1.3885582083531
37	130072	40	1.3774252080391
37	137216	41	1.3430159458513
37	145653	42	1.3847481673717
37	154166	43	1.3405301209523
37	162679	44	1.3767065195692
37	171192	45	1.3343590779361
37	179665	46	1.3457841664839
37	189546	47	1.3338414314361
37	199509	48	1.3560648397781
37	209472	49	1.3335908694303
37	219435	50	1.3842397465484
37	230921	51	1.3419650601316
37	242494	52	1.3279194432072
37	254067	53	1.3203127285809
37	265640	54	1.3786189098948
37	277213	55	1.374540636769
37	288786	56	1.3608715504529
37	300359	57	1.37005168631
37	311932	58	1.3312169277911
37	323505	59	1.385890405488
37	335078	60	1.3273622924265
37	347434	61	1.390758984069
37	359790	62	1.3655890300446
37	372653	63	1.3302955415499
37	384472	64	1.3588116855683
37	396150	65	1.3816128533855
37	407723	66	1.3834189788019
37	419296	67	1.3303463034222
37	430869	68	1.3971789558101
37	442442	69	1.3802565249025
37	453855	70	1.3273375883412
37	465188	71	1.3422799807257
37	476441	72	1.3441678871285
37	487614	73	1.3543077920375
37	498707	74	1.3263681798447
37	509800	75	1.3582712082402
37	520813	76	1.3398535805492
38	62643	29	0.15842883335168
38	67406	30	0.05173087369519
38	72169	31	0.060734312399122
38	77998	32	0.0059119699577332
38	83891	33	-0.025311035127183
38	89784	34	0.024784932413113
38	95677	35	0.018362343205742
38	101570	36	0.016696893009425
38	108643	37	-0.032738717221923
38	115786	38	0.0052781498768408
38	122929	39	0.042773953542
38	130072	40	-0.011133000314014
38	137216	41	-0.034409262187766
38	145653	42	0.04173222152035
38	154166	43	-0.044218046419348
38	162679	44	0.036176398616911
38	171192	45	-0.042347441633082
38	179665	46	0.011425088547769
38	189546	47	-0.01194273504777
38	199509	48	0.022223408341975
38	209472	49	-0.022473970347796
38	219435	50	0.050648877118126
38	230921	51	-0.042274686416869
38	242494	52	-0.014045616924426
38	254067	53	-0.0076067146262435
38	265640	54	0.058306181313848
38	277213	55	-0.0040782731257403
38	288786	56	-0.013669086316101
38	300359	57	0.0091801358570498
38	311932	58	-0.038834758518904
38	323505	59	0.054673477696934
38	335078	60	-0.058528113061476
38	347434	61	0.063396691642457
38	359790	62	-0.025169954024392
38	372653	63	-0.035293488494702
38	384472	64	0.028516144018406
38	396150	65	0.022801167817248
38	407723	66	0.0018061254164012
38	419296	67	-0.053072675379744
38	430869	68	0.066832652387903
38	442442	69	-0.016922430907578
38	453855	70	-0.052918936561291
38	465188	71	0.014942392384431
38	476441	72	0.0018879064028503
38	487614	73	0.010139904909004
38	498707	74	-0.02793961219279
38	509800	75	0.031903028395432
38	520813	76	-0.018417627690917
39	62643	29	1.2156308403746
39	67406	30	1.1874136054755
39	72169	31	1.1940211163399
39	77998	32	1.1767084605834
39	83891	33	1.1655560544394
39	89784	34	1.1827686524521
39	95677	35	1.1816736471687
39	101570	36	1.1820104309222
39	108643	37	1.1643119051179
39	115786	38	1.176857679977
39	122929	39	1.1915453551862
39	130072	40	1.1729927090555
39	137216	41	1.1638737293552
39	145653	42	1.1909726013195
39	154166	43	1.1606042849634
39	162679	44	1.1886561991703
39	171192	45	1.1609708467858
39	179665	46	1.1788513366688
39	189546	47	1.1707246719719
39	199509	48	1.1829097998025
39	209472	49	1.1673284919316
39	219435	50	1.1939173037592
39	230921	51	1.1612874393383
39	242494	52	1.1697801506398
39	254067	53	1.171484084185
39	265640	54	1.1961186893738
39	277213	55	1.1751967624465
39	288786	56	1.171398214802
39	300359	57	1.1793599787512
39	311932	58	1.1619767410942
39	323505	59	1.1953621726399
39	335078	60	1.1555251899568
39	347434	61	1.1985875684405
39	359790	62	1.167827659541
39	372653	63	1.1630758001461
39	384472	64	1.1851191269339
39	396150	65	1.184484709774
39	407723	66	1.1775828882161
39	419296	67	1.1573775954212
39	430869	68	1.2001557704939
39	442442	69	1.1711973802646
39	453855	70	1.1573186448921
39	465188	71	1.1798087026464
39	476441	72	1.1756785893985
39	487614	73	1.1788708223983
39	498707	74	1.1652685301785
39	509800	75	1.1861977376017
39	520813	76	1.1689095982821
40	72169	31	2415.8694684898
40	77998	32	2415.8694684898
40	83891	33	2415.3298566218
40	89784	34	2414.3718680588
[...]
42	154166	43	1.3512278175043
42	162679	44	1.34402920031
42	171192	45	1.322209100659
42	179665	46	1.339973048596
42	189546	47	1.362553967874
42	199509	48	1.3184347167428
42	209472	49	1.3465482683309
42	219435	50	1.3764709311187
42	230921	51	1.3822765824768
42	242494	52	1.3337582872799
42	254067	53	1.3406840420719
42	265640	54	1.368393203264
42	277213	55	1.3296467968191
42	288786	56	1.3286825554961
42	300359	57	1.3655635720785
42	311932	58	1.3651163520194
42	323505	59	1.3472294800804
42	335078	60	1.3850400002341
42	347434	61	1.377691290217
42	359790	62	1.3403306501788
42	372653	63	1.3564768767725
42	384472	64	1.391816660704
42	396150	65	1.3642673718002
42	407723	66	1.3377317331061
42	419296	67	1.3814288696083
42	430869	68	1.34247107586
42	442442	69	1.3272342412956
42	453855	70	1.3195223428789
42	465188	71	1.3378913195717
42	476441	72	1.3361308194918
42	487614	73	1.3389301955604
42	498707	74	1.3269393152685
42	509800	75	1.3200183927899
42	520813	76	1.3529282506487
43	83891	33	0.28781565807491
43	89784	34	0.13158750697053
43	95677	35	0.056539629136473
43	101570	36	-0.018035750688713
43	108643	37	0.063248957150977
43	115786	38	0.011280409539793
43	122929	39	-0.03501924850217
43	130072	40	-0.0060054610676152
43	137216	41	0.035896507635548
43	145653	42	-0.0030306741811881
43	154166	43	-0.018384587184301
43	162679	44	-0.0071986171943388
43	171192	45	-0.021820099650977
43	179665	46	0.017763947936986
43	189546	47	0.022580919278022
43	199509	48	-0.044119251131182
43	209472	49	0.028113551588086
43	219435	50	0.029922662787783
43	230921	51	0.0058056513580811
43	242494	52	-0.048518295196831
43	254067	53	0.0069257547919803
43	265640	54	0.02770916119211
43	277213	55	-0.038746406444866
43	288786	56	-0.0009642413230706
43	300359	57	0.036881016582444
43	311932	58	-0.00044722005912901
43	323505	59	-0.017886871939026
43	335078	60	0.0378105201537
43	347434	61	-0.0073487100170353
43	359790	62	-0.037360640038235
43	372653	63	0.016146226593669
43	384472	64	0.035339783931549
43	396150	65	-0.027549288903777
43	407723	66	-0.026535638694087
43	419296	67	0.043697136502163
43	430869	68	-0.038957793748325
43	442442	69	-0.01523683456439
43	453855	70	-0.0077118984167366
43	465188	71	0.018368976692865
43	476441	72	-0.0017605000798953
43	487614	73	0.0027993760685761
43	498707	74	-0.011990880291858
43	509800	75	-0.0069209224785991
43	520813	76	0.032909857858758
44	83891	33	1.2433969628127
44	89784	34	1.2113059655801
44	95677	35	1.1919553169239
44	101570	36	1.1674081764655
44	108643	37	1.1969846562487
44	115786	38	1.1804508702176
44	122929	39	1.1636656612596
44	130072	40	1.1727706178668
44	137216	41	1.1883300336625
44	145653	42	1.175307084961
44	154166	43	1.1694242718018
44	162679	44	1.1727285413252
44	171192	45	1.1670438770319
44	179665	46	1.1805991336103
44	189546	47	1.1833783108212
44	199509	48	1.1597944313303
44	209472	49	1.1843063934631
44	219435	50	1.1865681080533
44	230921	51	1.1788590330386
44	242494	52	1.1589641669034
44	254067	53	1.1771349569454
44	265640	54	1.185385995738
44	277213	55	1.1619432348584
44	288786	56	1.1740035731202
44	300359	57	1.1882475980814
44	311932	58	1.1759410880216
44	323505	59	1.1694086895323
44	335078	60	1.1896807266573
44	347434	61	1.1742614445746
44	359790	62	1.1628117660984
44	372653	63	1.1809453962014
44	384472	64	1.1892442507157
44	396150	65	1.1669889396865
44	407723	66	1.1661984117661
44	419296	67	1.1914315030242
44	430869	68	1.1623800794141
44	442442	69	1.1693680542355
44	453855	70	1.171413574353
44	465188	71	1.1806838451304
44	476441	72	1.1741084097943
44	487614	73	1.1757150426527
44	498707	74	1.170392797473
44	509800	75	1.1716884500807
44	520813	76	1.1862244747316
45	101570	36	2415.804154636
45	108643	37	2415.804154636
45	115786	38	2415.1280223049
45	122929	39	2414.1074573377
45	130072	40	2412.9344224043
45	137216	41	2411.7164167878
45	145653	42	2410.4618738391
45	154166	43	2409.2028645978
45	162679	44	2407.9221487378
45	171192	45	2406.8926753559
45	179665	46	2405.9422101851
45	189546	47	2404.9950089459
45	199509	48	2404.0566550493
45	209472	49	2403.1017170571
45	219435	50	2402.1468913575
45	230921	51	2401.1986470913
45	242494	52	2400.2474296427
45	254067	53	2399.304066468
45	265640	54	2398.350944503
45	277213	55	2397.4041577255
45	288786	56	2396.4556956186
45	300359	57	2395.5131736264
45	311932	58	2394.5573043053
45	323505	59	2393.6042068227
45	335078	60	2392.6576468173
45	347434	61	2391.7025174228
45	359790	62	2390.749312736
45	372653	63	2389.7973761983
45	384472	64	2388.8500810117
45	396150	65	2387.8999557538
45	407723	66	2386.9386406982
45	419296	67	2385.9897084695
45	430869	68	2385.0429570629
45	442442	69	2384.0940137927
45	453855	70	2383.1441946599
45	465188	71	2382.1944223888
45	476441	72	2381.2395789082
45	487614	73	2380.2960861984
45	498707	74	2379.3442323983
45	509800	75	2378.394212565
45	520813	76	2377.4452164463
46	101570	36	1578.1101333397
46	108643	37	1578.1101333397
46	115786	38	1578.3584056031
46	122929	39	1578.7331517329
46	130072	40	1579.1638840381
46	137216	41	1579.6111293435
46	145653	42	1580.0717909671
46	154166	43	1580.5340925893
46	162679	44	1581.004364769
46	171192	45	1581.8261651751
46	179665	46	1582.7888554521
46	189546	47	1583.7482398152
46	199509	48	1584.6986630401
46	209472	49	1585.6658836687
46	219435	50	1586.6329905605
46	230921	51	1587.5934313666
46	242494	52	1588.5568835977
46	254067	53	1589.5123805311
46	265640	54	1590.4777617743
46	277213	55	1591.4367263457
46	288786	56	1592.3973877942
46	300359	57	1593.3520327257
46	311932	58	1594.3201966621
46	323505	59	1595.285553108
46	335078	60	1596.24428799
46	347434	61	1597.2117024837
46	359790	62	1598.1771675125
46	372653	63	1599.1413480816
46	384472	64	1600.1008276008
46	396150	65	1601.063173593
46	407723	66	1602.0368533079
46	419296	67	1602.9979909258
46	430869	68	1603.956919671
46	442442	69	1604.9180684723
46	453855	70	1605.8801044021
46	465188	71	1606.8420928661
46	476441	72	1607.8092177678
46	487614	73	1608.7648459021
46	498707	74	1609.728942669
46	509800	75	1610.6911818804
46	520813	76	1611.6523842104
47	108643	37	0.93628826342729
47	115786	38	1.1532626196876
47	122929	39	1.2654281312594
47	130072	40	1.3265022790346
47	137216	41	1.340345171616
47	145653	42	1.3404245442416
47	154166	43	1.3793224305343
47	162679	44	1.3764775526804
47	171192	45	1.3724755406871
47	179665	46	1.3338526860875
47	189546	47	1.3275004212297
47	199509	48	1.3583236676489
47	209472	49	1.3881610172952
47	219435	50	1.3401976823451
47	230921	51	1.3804901765716
47	242494	52	1.343916847541
47	254067	53	1.3622118087277
47	265640	54	1.3475723988942
47	277213	55	1.3532654726264
47	288786	56	1.3329533259654
47	300359	57	1.3868219279645
47	311932	58	1.3611609932449
47	323505	59	1.3731044080685
47	335078	60	1.4059186271211
47	347434	61	1.3635037510283
47	359790	62	1.3140631788192
47	372653	63	1.3575338968453
47	384472	64	1.3229214695466
47	396150	65	1.3577506950604
47	407723	66	1.3862907506229
47	419296	67	1.3259475910918
47	430869	68	1.3652776141611
47	442442	69	1.3260168807674
47	453855	70	1.3625569675296
47	465188	71	1.3689433051229
47	476441	72	1.3297719726258
47	487614	73	1.3451131414807
47	498707	74	1.3494971865471
47	509800	75	1.3259966156876
47	520813	76	1.3881720057111
48	115786	38	0.21697435626032
48	122929	39	0.11216551157176
48	130072	40	0.061074147775206
48	137216	41	0.013842892581422
48	145653	42	7.9372625544138e-05
48	154166	43	0.038897886292732
48	162679	44	-0.0028448778539165
48	171192	45	-0.0040020119932485
48	179665	46	-0.038622854599657
48	189546	47	-0.006352264857723
48	199509	48	0.030823246419147
48	209472	49	0.029837349646299
48	219435	50	-0.047963334950117
48	230921	51	0.040292494226578
48	242494	52	-0.036573329030646
48	254067	53	0.018294961186672
48	265640	54	-0.014639409833486
48	277213	55	0.0056930737321763
48	288786	56	-0.020312146660945
48	300359	57	0.053868601999039
48	311932	58	-0.025660934719582
48	323505	59	0.011943414823645
48	335078	60	0.032814219052549
48	347434	61	-0.042414876092793
48	359790	62	-0.049440572209097
48	372653	63	0.043470718026128
48	384472	64	-0.034612427298685
48	396150	65	0.034829225513795
48	407723	66	0.028540055562449
48	419296	67	-0.06034315953105
48	430869	68	0.039330023069295
48	442442	69	-0.039260733393721
48	453855	70	0.036540086762255
48	465188	71	0.0063863375932394
48	476441	72	-0.039171332497042
48	487614	73	0.015341168854859
48	498707	74	0.0043840450664072
48	509800	75	-0.023500570859557
48	520813	76	0.062175390023504
49	115786	38	1.2260801325877
49	122929	39	1.2054383560125
49	130072	40	1.1937307078274
49	137216	41	1.1793522713523
49	145653	42	1.174910205255
49	154166	43	1.1897112421879
49	162679	44	1.1756984667247
49	171192	45	1.1751233168714
49	179665	46	1.1621486369122
49	189546	47	1.1722224663716
49	199509	48	1.1858472252947
49	209472	49	1.1871939885569
49	219435	50	1.1593819433441
49	230921	51	1.1902431208477
49	242494	52	1.163209262102
49	254067	53	1.1819527167938
49	265640	54	1.1704785881013
49	277213	55	1.1773671882767
49	288786	56	1.1679953438618
49	300359	57	1.1951508706453
49	311932	58	1.1674775690689
49	323505	59	1.1804300066848
49	335078	60	1.1891965541096
49	347434	61	1.1620718815039
49	359790	62	1.1579427257485
49	372653	63	1.189940674929
49	384472	64	1.1629963389231
49	396150	65	1.1871258641091
49	407723	66	1.1866558998687
49	419296	67	1.1548962052604
49	430869	68	1.1890369153038
49	442442	69	1.1616358862579
49	453855	70	1.187962332173
49	465188	71	1.1783817652415
49	476441	72	1.1618119876041
49	487614	73	1.1800862667816
49	498707	74	1.1767525949111
49	509800	75	1.1666714897865
49	520813	76	1.1980132772534
50	137216	41	2415.6622893555
50	145653	42	2415.6622893555
50	154166	43	2414.8607107004
50	162679	44	2413.7836110867
50	171192	45	2412.6018301442
50	179665	46	2411.3633690685
50	189546	47	2410.1090304699
50	199509	48	2408.8550346715
50	209472	49	2407.5976621911
50	219435	50	2406.6397371637
50	230921	51	2405.6895568063
50	242494	52	2405.5917244012
50	254067	53	2405.5917244012
50	265640	54	2405.5917244012
50	277213	55	2405.5917244012
50	288786	56	2405.5917244012
50	300359	57	2405.5917244012
50	311932	58	2405.5917244012
50	323505	59	2405.5917244012
50	335078	60	2405.5917244012
50	347434	61	2405.5917244012
50	359790	62	2405.5917244012
50	372653	63	2405.5917244012
50	384472	64	2405.5917244012
50	396150	65	2405.5917244012
50	407723	66	2405.5917244012
50	419296	67	2405.5917244012
50	430869	68	2405.5917244012
50	442442	69	2405.5917244012
50	453855	70	2405.5917244012
50	465188	71	2405.5917244012
50	476441	72	2405.5917244012
50	487614	73	2405.5917244012
50	498707	74	2405.5917244012
50	509800	75	2405.5917244012
50	520813	76	2405.5917244012
51	137216	41	1578.1622255305
51	145653	42	1578.1622255305
51	154166	43	1578.456561029
51	162679	44	1578.8520663856
51	171192	45	1579.2860101806
51	179665	46	1579.740766624
51	189546	47	1580.201353211
51	199509	48	1580.6618139232
51	209472	49	1581.1235145358
51	219435	50	1582.0823567174
51	230921	51	1583.0447585173
51	242494	52	1583.1438492658
51	254067	53	1583.1438492658
51	265640	54	1583.1438492658
51	277213	55	1583.1438492658
51	288786	56	1583.1438492658
51	300359	57	1583.1438492658
51	311932	58	1583.1438492658
51	323505	59	1583.1438492658
51	335078	60	1583.1438492658
51	347434	61	1583.1438492658
51	359790	62	1583.1438492658
51	372653	63	1583.1438492658
51	384472	64	1583.1438492658
51	396150	65	1583.1438492658
51	407723	66	1583.1438492658
51	419296	67	1583.1438492658
51	430869	68	1583.1438492658
51	442442	69	1583.1438492658
51	453855	70	1583.1438492658
51	465188	71	1583.1438492658
51	476441	72	1583.1438492658
51	487614	73	1583.1438492658
51	498707	74	1583.1438492658
51	509800	75	1583.1438492658
51	520813	76	1583.1438492658
52	145653	42	1.0153711055496
52	154166	43	1.2299955556895
52	162679	44	1.3059248941408
52	171192	45	1.3089086679392
52	179665	46	1.3571270208034
52	189546	47	1.3505072114543
52	199509	48	1.3573628644672
52	209472	49	1.3636690946716
52	219435	50	1.3641865325572
52	230921	51	0
52	242494	52	0
52	254067	53	0
52	265640	54	0
52	277213	55	0
52	288786	56	0
52	300359	57	0
52	311932	58	0
52	323505	59	0
52	335078	60	0
52	347434	61	0
52	359790	62	0
52	372653	63	0
52	384472	64	0
52	396150	65	0
52	407723	66	0
52	419296	67	0
52	430869	68	0
52	442442	69	0
52	453855	70	0
52	465188	71	0
52	476441	72	0
52	487614	73	0
52	498707	74	0
52	509800	75	0
52	520813	76	0
53	154166	43	0.21462445013995
53	162679	44	0.075929338451311
53	171192	45	0.0029837737984237
53	179665	46	0.048218352864197
53	189546	47	-0.0066198093490943
53	199509	48	0.0068556530128863
53	209472	49	0.0063062302043533
53	219435	50	0.00051743788565606
53	230921	51	-1.3641865325572
53	242494	52	0
53	254067	53	0
53	265640	54	0
53	277213	55	0
53	288786	56	0
53	300359	57	0
53	311932	58	0
53	323505	59	0
53	335078	60	0
53	347434	61	0
53	359790	62	0
53	372653	63	0
53	384472	64	0
53	396150	65	0
53	407723	66	0
53	419296	67	0
53	430869	68	0
53	442442	69	0
53	453855	70	0
53	465188	71	0
53	476441	72	0
53	487614	73	0
53	498707	74	0
53	509800	75	0
53	520813	76	0
54	154166	43	1.2331277844276
54	162679	44	1.1971006421484
54	171192	45	1.1742901341317
54	179665	46	1.1914693744609
54	189546	47	1.1732214466831
54	199509	48	1.1779528621585
54	209472	49	1.1780901642691
54	219435	50	1.1762130034468
54	230921	51	0.973
54	242494	52	0.973
54	254067	53	0.973
54	265640	54	0.973
54	277213	55	0.973
54	288786	56	0.973
54	300359	57	0.973
54	311932	58	0.973
54	323505	59	0.973
54	335078	60	0.973
54	347434	61	0.973
54	359790	62	0.973
54	372653	63	0.973
54	384472	64	0.973
54	396150	65	0.973
54	407723	66	0.973
54	419296	67	0.973
54	430869	68	0.973
54	442442	69	0.973
54	453855	70	0.973
54	465188	71	0.973
54	476441	72	0.973
54	487614	73	0.973
54	498707	74	0.973
54	509800	75	0.973
54	520813	76	0.973
55	179665	46	2415.4780593546
55	189546	47	2415.4780593546
55	199509	48	2414.5761764973
55	209472	49	2413.4735994214
55	219435	50	2412.2766366469
55	230921	51	2411.0273987848
55	242494	52	2410.1570357371
55	254067	53	2409.7257339496
55	265640	54	2409.6177142166
55	277213	55	2409.6177142166
55	288786	56	2409.6177142166
55	300359	57	2409.6177142166
55	311932	58	2409.6177142166
55	323505	59	2409.6177142166
55	335078	60	2409.6177142166
55	347434	61	2409.6177142166
55	359790	62	2409.6177142166
55	372653	63	2409.6177142166
55	384472	64	2409.6177142166
55	396150	65	2409.6177142166
55	407723	66	2409.6177142166
55	419296	67	2409.6177142166
55	430869	68	2409.6177142166
55	442442	69	2409.6177142166
55	453855	70	2409.6177142166
55	465188	71	2409.6177142166
55	476441	72	2409.6177142166
55	487614	73	2409.6177142166
55	498707	74	2409.6177142166
55	509800	75	2409.6177142166
55	520813	76	2409.6177142166
56	179665	46	1578.2298738258
56	189546	47	1578.2298738258
56	199509	48	1578.5610405039
56	209472	49	1578.9659010516
56	219435	50	1579.405419535
56	230921	51	1579.8641331587
56	242494	52	1580.183725927
56	254067	53	1580.3420976922
56	265640	54	1580.3817619747
56	277213	55	1580.3817619747
56	288786	56	1580.3817619747
56	300359	57	1580.3817619747
56	311932	58	1580.3817619747
56	323505	59	1580.3817619747
56	335078	60	1580.3817619747
56	347434	61	1580.3817619747
56	359790	62	1580.3817619747
56	372653	63	1580.3817619747
56	384472	64	1580.3817619747
56	396150	65	1580.3817619747
56	407723	66	1580.3817619747
56	419296	67	1580.3817619747
56	430869	68	1580.3817619747
56	442442	69	1580.3817619747
56	453855	70	1580.3817619747
56	465188	71	1580.3817619747
56	476441	72	1580.3817619747
56	487614	73	1580.3817619747
56	498707	74	1580.3817619747
56	509800	75	1580.3817619747
56	520813	76	1580.3817619747
57	189546	47	1.0563964162958
57	199509	48	1.2042835426666
57	209472	49	1.3271613998118
57	219435	50	1.3542908406757
57	230921	51	0.60312586022991
57	242494	52	0.44746309105132
57	254067	53	0
57	265640	54	0
57	277213	55	0
57	288786	56	0
57	300359	57	0
57	311932	58	0
57	323505	59	0
57	335078	60	0
57	347434	61	0
57	359790	62	0
57	372653	63	0
57	384472	64	0
57	396150	65	0
57	407723	66	0
57	419296	67	0
57	430869	68	0
57	442442	69	0
57	453855	70	0
57	465188	71	0
57	476441	72	0
57	487614	73	0
57	498707	74	0
57	509800	75	0
57	520813	76	0
58	199509	48	0.14788712637082
58	209472	49	0.12287785714526
58	219435	50	0.027129440863877
58	230921	51	-0.75116498044581
58	242494	52	-0.15566276917858
58	254067	53	-0.44746309105132
58	265640	54	0
58	277213	55	0
58	288786	56	0
58	300359	57	0
58	311932	58	0
58	323505	59	0
58	335078	60	0
58	347434	61	0
58	359790	62	0
58	372653	63	0
58	384472	64	0
58	396150	65	0
58	407723	66	0
58	419296	67	0
58	430869	68	0
58	442442	69	0
58	453855	70	0
58	465188	71	0
58	476441	72	0
58	487614	73	0
58	498707	74	0
58	509800	75	0
58	520813	76	0
59	199509	48	1.2111776101976
59	209472	49	1.2135401897911
59	219435	50	1.1844150689002
59	230921	51	0.973
59	242494	52	0.973
59	254067	53	0.973
59	265640	54	0.973
59	277213	55	0.973
59	288786	56	0.973
59	300359	57	0.973
59	311932	58	0.973
59	323505	59	0.973
59	335078	60	0.973
59	347434	61	0.973
59	359790	62	0.973
59	372653	63	0.973
59	384472	64	0.973
59	396150	65	0.973
59	407723	66	0.973
59	419296	67	0.973
59	430869	68	0.973
59	442442	69	0.973
59	453855	70	0.973
59	465188	71	0.973
59	476441	72	0.973
59	487614	73	0.973
59	498707	74	0.973
59	509800	75	0.973
59	520813	76	0.973
60	219435	50	2415.845821948
60	230921	51	2415.845821948
60	242494	52	2415.3883650473
60	254067	53	2414.8966467505
60	265640	54	2414.4704598178
60	277213	55	2414.3119827211
60	288786	56	2414.3119827211
60	300359	57	2414.3119827211
60	311932	58	2414.3119827211
60	323505	59	2414.3119827211
60	335078	60	2414.3119827211
60	347434	61	2414.3119827211
60	359790	62	2414.3119827211
60	372653	63	2414.3119827211
60	384472	64	2414.3119827211
60	396150	65	2414.3119827211
60	407723	66	2414.3119827211
60	419296	67	2414.3119827211
60	430869	68	2414.3119827211
60	442442	69	2414.3119827211
60	453855	70	2414.3119827211
60	465188	71	2414.3119827211
60	476441	72	2414.3119827211
60	487614	73	2414.3119827211
60	498707	74	2414.3119827211
60	509800	75	2414.3119827211
60	520813	76	2414.3119827211
61	219435	50	1578.09483332
61	230921	51	1578.09483332
61	242494	52	1578.2628091071
61	254067	53	1578.4433654994
61	265640	54	1578.5998591166
61	277213	55	1578.6580510791
61	288786	56	1578.6580510791
61	300359	57	1578.6580510791
61	311932	58	1578.6580510791
61	323505	59	1578.6580510791
61	335078	60	1578.6580510791
61	347434	61	1578.6580510791
61	359790	62	1578.6580510791
61	372653	63	1578.6580510791
61	384472	64	1578.6580510791
61	396150	65	1578.6580510791
61	407723	66	1578.6580510791
61	419296	67	1578.6580510791
61	430869	68	1578.6580510791
61	442442	69	1578.6580510791
61	453855	70	1578.6580510791
61	465188	71	1578.6580510791
61	476441	72	1578.6580510791
61	487614	73	1578.6580510791
61	498707	74	1578.6580510791
61	509800	75	1578.6580510791
61	520813	76	1578.6580510791
62	230921	51	0.55179197823694
62	242494	52	0.49444456336184
62	254067	53	0.43771298911655
62	265640	54	0
62	277213	55	0
62	288786	56	0
62	300359	57	0
62	311932	58	0
62	323505	59	0
62	335078	60	0
62	347434	61	0
62	359790	62	0
62	372653	63	0
62	384472	64	0
62	396150	65	0
62	407723	66	0
62	419296	67	0
62	430869	68	0
62	442442	69	0
62	453855	70	0
62	465188	71	0
62	476441	72	0
62	487614	73	0
62	498707	74	0
62	509800	75	0
62	520813	76	0
63	242494	52	-0.057347414875105
63	254067	53	-0.056731574245287
63	265640	54	-0.43771298911655
63	277213	55	0
63	288786	56	0
63	300359	57	0
63	311932	58	0
63	323505	59	0
63	335078	60	0
63	347434	61	0
63	359790	62	0
63	372653	63	0
63	384472	64	0
63	396150	65	0
63	407723	66	0
63	419296	67	0
63	430869	68	0
63	442442	69	0
63	453855	70	0
63	465188	71	0
63	476441	72	0
63	487614	73	0
63	498707	74	0
63	509800	75	0
63	520813	76	0
64	242494	52	1.1270295891342
64	254067	53	1.1251384743151
64	265640	54	0.973
64	277213	55	0.973
64	288786	56	0.973
64	300359	57	0.973
64	311932	58	0.973
64	323505	59	0.973
64	335078	60	0.973
64	347434	61	0.973
64	359790	62	0.973
64	372653	63	0.973
64	384472	64	0.973
64	396150	65	0.973
64	407723	66	0.973
64	419296	67	0.973
64	430869	68	0.973
64	442442	69	0.973
64	453855	70	0.973
64	465188	71	0.973
64	476441	72	0.973
64	487614	73	0.973
64	498707	74	0.973
64	509800	75	0.973
64	520813	76	0.973

