version 2
run CCH_SCH_Safety_B_100Bytes_Q_1-0-20181029-04:01:26-11856
attr configname CCH_SCH_Safety_B_100Bytes_Q_1
attr datetime 20181029-04:01:26
attr experiment CCH_SCH_Safety_B_100Bytes_Q_1
attr inifile omnetpp.ini
attr iterationvars $0=1
attr iterationvarsf 1-
attr measurement $0=1
attr network vanets.RSUScenario
attr processid 11856
attr repetition 0
attr replication #0
attr resultdir results
attr runnumber 0
attr seedset 0
param **.debug false
param **.coreDebug false
param *.annotations.draw false
param *.rsu[*].appl.beaconLengthBits 800bit
param *.node[*].appl.beaconLengthBits 800bit
param *.metricsApplication.appl.beaconLengthBits 800bit
param *.node[*].appl.sendBeacons true
param *.rsu[*].appl.sendBeacons false
param *.metricsApplicaiton[*].appl.sendBeacons false
param *.node[*].appl.dataOnSch true
param *.rsu[*].appl.dataOnSch false
param *.metricsApplication[*].appl.dataOnSch false
param *.node[*].appl.sendData true
param *.rsu[*].appl.sendData true
param *.metricsApplication[*].appl.sendData false
param *.node[*].appl.beaconInterval 0.1s
param *.rsu[*].appl.beaconInterval 0.1s
param *.metricsApplication[*].appl.beaconInterval 0.1s
param *.node[*].appl.beaconPriority 3
param *.rsu[*].appl.beaconPriority 3
param *.metricsApplication[*].appl.beaconPriority 3
param *.node[*].appl.dataPriority 2
param *.rsu[*].appl.dataPriority 2
param *.metricsApplication.appl.beaconPriority 2
param *.**.nic.mac1609_4.queueSize 1
param *.**.nic.mac1609_4.useServiceChannel true
param *.manager.launchConfig "xmldoc(\"erlangen.launchd.xml\")"
param **.debug false
param **.coreDebug false
param *.playgroundSizeX 2500m
param *.playgroundSizeY 2500m
param *.playgroundSizeZ 50m
param *.annotations.draw false
param *.obstacles.debug false
param *.obstacles.obstacles "xmldoc(\"config.xml\", \"//AnalogueModel[@type='SimpleObstacleShadowing']/obstacles\")"
param *.world.useTorus false
param *.world.use2D false
param *.manager.updateInterval 1s
param *.manager.host "\"localhost\""
param *.manager.port 9999
param *.manager.autoShutdown true
param *.manager.launchConfig "xmldoc(\"erlangen.launchd.xml\")"
param *.manager.moduleType "\"vanets.CarWithMetrics\""
param *.manager.moduleName "\"node\""
param *.manager.moduleDisplayString "\"\""
param *.manager.margin 25
param *.manager.numVehicles 5
param *.manager.debug true
param *.rsu[0].mobility.x 2000
param *.rsu[0].mobility.y 2000
param *.rsu[0].mobility.z 3
param *.rsu[*].applType "\"TraCIDemoRSU11p\""
param *.rsu[*].appl.headerLength "80 bit"
param *.rsu[*].appl.sendBeacons false
param *.rsu[*].appl.dataOnSch false
param *.rsu[*].appl.beaconInterval 1s
param *.rsu[*].appl.beaconUserPriority 7
param *.rsu[*].appl.dataUserPriority 5
param *.metricsApplication.applType "\"TraCIDemoRSU11p\""
param *.metricsApplication.appl.debug false
param *.metricsApplication.appl.headerLength "80 bit"
param *.metricsApplication.appl.sendBeacons false
param *.metricsApplication.appl.dataOnSch false
param *.metricsApplication.appl.beaconInterval 1s
param *.metricsApplication.appl.beaconUserPriority 7
param *.metricsApplication.appl.dataUserPriority 2
param *.connectionManager.sendDirect true
param *.connectionManager.maxInterfDist 2600m
param *.connectionManager.drawMaxIntfDist false
param *.**.nic.mac1609_4.useServiceChannel false
param *.**.nic.mac1609_4.txPower 100mW
param *.**.nic.mac1609_4.bitrate 6Mbps
param *.**.nic.phy80211p.sensitivity -89dBm
param *.**.nic.mac1609_4.queueSize 1
param *.**.nic.phy80211p.useThermalNoise true
param *.**.nic.phy80211p.thermalNoise -110dBm
param *.**.nic.phy80211p.decider "xmldoc(\"config.xml\", \"/root/Decider[@type='Decider80211p']\")"
param *.**.nic.phy80211p.decider.collectCollisionStats true
param *.**.nic.phy80211p.analogueModels "xmldoc(\"config.xml\")"
param *.**.nic.phy80211p.usePropagationDelay true
param *.**.nic.phy80211p.collectCollisionStatistics true
param *.**.nic.phy80211p.antenna "xmldoc(\"antenna.xml\", \"/root/Antenna[@id='monopole']\")"
param *.node[*].applType "\"TraCIDemo11p\""
param *.node[*].appl.headerLength "80 bit"
param *.node[*].appl.sendBeacons false
param *.node[*].appl.dataOnSch false
param *.node[*].appl.beaconInterval 1s
param *.node[*].veinsmobilityType.debug true
param *.node[*].veinsmobility.x 0
param *.node[*].veinsmobility.y 0
param *.node[*].veinsmobility.z 1.895
param *.node[*0].veinsmobility.accidentCount 1
param *.node[*0].veinsmobility.accidentStart 10s
param *.node[*0].veinsmobility.accidentDuration 30s

vector 0 RSUScenario.node[0].veinsmobility posx ETV
vector 1 RSUScenario.node[0].veinsmobility posy ETV
vector 2 RSUScenario.node[0].veinsmobility speed ETV
vector 3 RSUScenario.node[1].veinsmobility posx ETV
vector 4 RSUScenario.node[1].veinsmobility posy ETV
vector 5 RSUScenario.node[0].veinsmobility acceleration ETV
vector 6 RSUScenario.node[0].veinsmobility co2emission ETV
vector 7 RSUScenario.node[1].veinsmobility speed ETV
vector 8 RSUScenario.node[1].veinsmobility acceleration ETV
vector 9 RSUScenario.node[1].veinsmobility co2emission ETV
vector 10 RSUScenario.node[2].veinsmobility posx ETV
vector 11 RSUScenario.node[2].veinsmobility posy ETV
vector 12 RSUScenario.node[2].veinsmobility speed ETV
vector 13 RSUScenario.node[2].veinsmobility acceleration ETV
vector 14 RSUScenario.node[2].veinsmobility co2emission ETV
vector 15 RSUScenario.node[3].veinsmobility posx ETV
vector 16 RSUScenario.node[3].veinsmobility posy ETV
vector 17 RSUScenario.node[4].veinsmobility posx ETV
vector 18 RSUScenario.node[4].veinsmobility posy ETV
vector 19 RSUScenario.node[3].veinsmobility speed ETV
vector 20 RSUScenario.node[3].veinsmobility acceleration ETV
vector 21 RSUScenario.node[3].veinsmobility co2emission ETV
vector 22 RSUScenario.node[4].veinsmobility speed ETV
vector 23 RSUScenario.node[4].veinsmobility acceleration ETV
vector 24 RSUScenario.node[4].veinsmobility co2emission ETV
vector 25 RSUScenario.node[5].veinsmobility posx ETV
vector 26 RSUScenario.node[5].veinsmobility posy ETV
vector 27 RSUScenario.node[5].veinsmobility speed ETV
vector 28 RSUScenario.node[5].veinsmobility acceleration ETV
vector 29 RSUScenario.node[5].veinsmobility co2emission ETV
vector 30 RSUScenario.node[6].veinsmobility posx ETV
vector 31 RSUScenario.node[6].veinsmobility posy ETV
vector 32 RSUScenario.node[6].veinsmobility speed ETV
vector 33 RSUScenario.node[6].veinsmobility acceleration ETV
vector 34 RSUScenario.node[6].veinsmobility co2emission ETV
vector 35 RSUScenario.node[7].veinsmobility posx ETV
vector 36 RSUScenario.node[7].veinsmobility posy ETV
vector 37 RSUScenario.node[7].veinsmobility speed ETV
vector 38 RSUScenario.node[7].veinsmobility acceleration ETV
vector 39 RSUScenario.node[7].veinsmobility co2emission ETV
vector 40 RSUScenario.node[8].veinsmobility posx ETV
vector 41 RSUScenario.node[8].veinsmobility posy ETV
vector 42 RSUScenario.node[8].veinsmobility speed ETV
vector 43 RSUScenario.node[8].veinsmobility acceleration ETV
vector 44 RSUScenario.node[8].veinsmobility co2emission ETV
vector 45 RSUScenario.node[9].veinsmobility posx ETV
vector 46 RSUScenario.node[9].veinsmobility posy ETV
vector 47 RSUScenario.node[9].veinsmobility speed ETV
vector 48 RSUScenario.node[9].veinsmobility acceleration ETV
vector 49 RSUScenario.node[9].veinsmobility co2emission ETV
vector 50 RSUScenario.node[10].veinsmobility posx ETV
vector 51 RSUScenario.node[10].veinsmobility posy ETV
vector 52 RSUScenario.node[10].veinsmobility speed ETV
vector 53 RSUScenario.node[10].veinsmobility acceleration ETV
vector 54 RSUScenario.node[10].veinsmobility co2emission ETV
vector 55 RSUScenario.node[11].veinsmobility posx ETV
vector 56 RSUScenario.node[11].veinsmobility posy ETV
vector 57 RSUScenario.node[11].veinsmobility speed ETV
vector 58 RSUScenario.node[11].veinsmobility acceleration ETV
vector 59 RSUScenario.node[11].veinsmobility co2emission ETV
vector 60 RSUScenario.node[12].veinsmobility posx ETV
vector 61 RSUScenario.node[12].veinsmobility posy ETV
vector 62 RSUScenario.node[12].veinsmobility speed ETV
vector 63 RSUScenario.node[12].veinsmobility acceleration ETV
vector 64 RSUScenario.node[12].veinsmobility co2emission ETV
vector 65 RSUScenario.node[13].veinsmobility posx ETV
vector 66 RSUScenario.node[13].veinsmobility posy ETV
vector 67 RSUScenario.node[13].veinsmobility speed ETV
vector 68 RSUScenario.node[13].veinsmobility acceleration ETV
vector 69 RSUScenario.node[13].veinsmobility co2emission ETV
vector 70 RSUScenario.node[14].veinsmobility posx ETV
vector 71 RSUScenario.node[14].veinsmobility posy ETV
vector 72 RSUScenario.node[14].veinsmobility speed ETV
vector 73 RSUScenario.node[15].veinsmobility posx ETV
vector 74 RSUScenario.node[15].veinsmobility posy ETV
vector 75 RSUScenario.node[14].veinsmobility acceleration ETV
vector 76 RSUScenario.node[14].veinsmobility co2emission ETV
vector 77 RSUScenario.node[15].veinsmobility speed ETV
vector 78 RSUScenario.node[16].veinsmobility posx ETV
vector 79 RSUScenario.node[16].veinsmobility posy ETV
vector 80 RSUScenario.node[15].veinsmobility acceleration ETV
vector 81 RSUScenario.node[15].veinsmobility co2emission ETV
vector 82 RSUScenario.node[16].veinsmobility speed ETV
vector 83 RSUScenario.node[17].veinsmobility posx ETV
vector 84 RSUScenario.node[17].veinsmobility posy ETV
vector 85 RSUScenario.node[16].veinsmobility acceleration ETV
vector 86 RSUScenario.node[16].veinsmobility co2emission ETV
vector 87 RSUScenario.node[17].veinsmobility speed ETV
vector 88 RSUScenario.node[18].veinsmobility posx ETV
vector 89 RSUScenario.node[18].veinsmobility posy ETV
vector 90 RSUScenario.node[17].veinsmobility acceleration ETV
vector 91 RSUScenario.node[17].veinsmobility co2emission ETV
vector 92 RSUScenario.node[18].veinsmobility speed ETV
vector 93 RSUScenario.node[19].veinsmobility posx ETV
vector 94 RSUScenario.node[19].veinsmobility posy ETV
vector 95 RSUScenario.node[18].veinsmobility acceleration ETV
vector 96 RSUScenario.node[18].veinsmobility co2emission ETV
vector 97 RSUScenario.node[19].veinsmobility speed ETV
vector 98 RSUScenario.node[20].veinsmobility posx ETV
vector 99 RSUScenario.node[20].veinsmobility posy ETV
vector 100 RSUScenario.node[19].veinsmobility acceleration ETV
vector 101 RSUScenario.node[19].veinsmobility co2emission ETV
vector 102 RSUScenario.node[20].veinsmobility speed ETV
vector 103 RSUScenario.node[20].veinsmobility acceleration ETV
vector 104 RSUScenario.node[20].veinsmobility co2emission ETV
vector 105 RSUScenario.node[21].veinsmobility posx ETV
vector 106 RSUScenario.node[21].veinsmobility posy ETV
vector 107 RSUScenario.node[21].veinsmobility speed ETV
vector 108 RSUScenario.node[22].veinsmobility posx ETV
vector 109 RSUScenario.node[22].veinsmobility posy ETV
vector 110 RSUScenario.node[21].veinsmobility acceleration ETV
vector 111 RSUScenario.node[21].veinsmobility co2emission ETV
vector 112 RSUScenario.node[22].veinsmobility speed ETV
vector 113 RSUScenario.node[22].veinsmobility acceleration ETV
vector 114 RSUScenario.node[22].veinsmobility co2emission ETV
vector 115 RSUScenario.node[23].veinsmobility posx ETV
vector 116 RSUScenario.node[23].veinsmobility posy ETV
vector 117 RSUScenario.node[23].veinsmobility speed ETV
vector 118 RSUScenario.node[23].veinsmobility acceleration ETV
vector 119 RSUScenario.node[23].veinsmobility co2emission ETV
vector 120 RSUScenario.node[24].veinsmobility posx ETV
vector 121 RSUScenario.node[24].veinsmobility posy ETV
vector 122 RSUScenario.node[24].veinsmobility speed ETV
vector 123 RSUScenario.node[24].veinsmobility acceleration ETV
vector 124 RSUScenario.node[24].veinsmobility co2emission ETV
vector 125 RSUScenario.node[25].veinsmobility posx ETV
vector 126 RSUScenario.node[25].veinsmobility posy ETV
vector 127 RSUScenario.node[25].veinsmobility speed ETV
vector 128 RSUScenario.node[25].veinsmobility acceleration ETV
vector 129 RSUScenario.node[25].veinsmobility co2emission ETV
vector 130 RSUScenario.node[26].veinsmobility posx ETV
vector 131 RSUScenario.node[26].veinsmobility posy ETV
vector 132 RSUScenario.node[26].veinsmobility speed ETV
vector 133 RSUScenario.node[27].veinsmobility posx ETV
vector 134 RSUScenario.node[27].veinsmobility posy ETV
vector 135 RSUScenario.node[26].veinsmobility acceleration ETV
vector 136 RSUScenario.node[26].veinsmobility co2emission ETV
vector 137 RSUScenario.node[27].veinsmobility speed ETV
vector 138 RSUScenario.node[28].veinsmobility posx ETV
vector 139 RSUScenario.node[28].veinsmobility posy ETV
vector 140 RSUScenario.node[27].veinsmobility acceleration ETV
vector 141 RSUScenario.node[27].veinsmobility co2emission ETV
vector 142 RSUScenario.node[28].veinsmobility speed ETV
vector 143 RSUScenario.node[28].veinsmobility acceleration ETV
vector 144 RSUScenario.node[28].veinsmobility co2emission ETV
0	42	1	2414.9014220152
0	239	2	2414.9014220152
0	452	3	2412.0282535021
0	933	4	2407.3882241928
0	1757	5	2402.58626065
0	3025	6	2396.420519083
0	5545	7	2388.9147587077
0	10264	8	2379.9992780851
0	17676	9	2370.2874205885
0	29111	10	2360.585355688
0	44941	11	2350.8671117298
0	70091	12	2342.9440514196
0	113803	13	2338.7587663516
0	182346	14	2337.3435226944
0	267195	15	2337.3435226944
0	360423	16	2337.3435226944
0	454040	17	2337.3435226944
0	559779	18	2337.3435226944
0	672015	19	2337.3435226944
0	784540	20	2337.3435226944
0	895007	21	2337.3435226944
0	1006426	22	2337.3435226944
0	1128735	23	2337.3435226944
0	1263643	24	2337.3435226944
0	1400739	25	2337.3435226944
0	1537549	26	2337.3435226944
0	1672057	27	2337.3435226944
0	1819913	28	2337.3435226944
0	1979960	29	2337.3435226944
0	2139909	30	2337.3435226944
0	2301964	31	2337.3435226944
0	2477147	32	2337.3435226944
0	2662419	33	2337.3435226944
0	2847921	34	2337.3435226944
0	3032140	35	2337.3435226944
0	3214827	36	2337.3435226944
0	3412035	37	2337.3435226944
0	3627555	38	2337.3435226944
0	3840742	39	2337.3435226944
0	4053271	40	2337.3435226944
0	4265311	41	2337.3435226944
0	4495212	42	2336.5249448147
0	4736931	43	2335.1005747541
0	4979627	44	2334.2031773466
0	5222712	45	2334.7047674261
0	5463850	46	2341.2798826832
0	5726113	47	2349.6161976923
0	6001441	48	2359.2633454446
0	6271840	49	2372.3382008162
0	6539145	50	2386.0329816432
0	6829271	51	2399.3277640167
0	7137576	52	2409.735841534
0	7445314	53	2417.0995893856
0	7746631	54	2421.8070122814
0	8050767	55	2426.3953417424
0	8354353	56	2430.8091933745
0	8657076	57	2432.1275896608
0	8962449	58	2433.7571953952
0	9264427	59	2435.6530374507
0	9572847	60	2437.734220636
0	9883209	61	2438.8370801585
0	10188633	62	2439.7609988422
0	10498252	63	2440.7723355127
0	10809116	64	2441.782358008
0	11116472	65	2442.7919487618
0	11416212	66	2443.8022128009
0	11717703	67	2444.8135354778
0	12023588	68	2445.8242097378
0	12334683	69	2446.8344743385
0	12638786	70	2447.8465754896
0	12941694	71	2448.8578961624
0	13243167	72	2449.8679601888
0	13548139	73	2450.4195231132
0	13854430	74	2449.3073565419
0	14156953	75	2448.1972147524
0	14462317	76	2447.0848037533
0	14767111	77	2445.9708339826
0	15069746	78	2444.8576963588
0	15369309	79	2443.7466658397
0	15671236	80	2442.6349951634
0	15972557	81	2441.5218884256
0	16279588	82	2440.4231676076
0	16584299	83	2439.4820546998
0	16906646	84	2438.6156818904
0	17244436	85	2437.2649662772
0	17587648	86	2430.7651669366
0	17940919	87	2419.3586546434
0	18303723	88	2405.9497876841
0	18685258	89	2392.0347084536
0	19071047	90	2378.0930622061
0	19472501	91	2364.1476828775
0	19890926	92	2350.2269873314
0	20323699	93	2336.2904418631
0	20786354	94	2322.3415783617
0	21265374	95	2308.4077008328
0	21765277	96	2294.4754979631
0	22281312	97	2280.5575754346
0	22822112	98	2266.6147673925
0	23391229	99	2252.6974769654
0	23983566	100	2238.8538137422
0	24560260	101	2225.0531531578
0	25170363	102	2211.4569708424
0	25796934	103	2198.2723890034
0	26449646	104	2185.0857998967
0	27118415	105	2172.4853656462
0	27796875	106	2161.3810339737
0	28490975	107	2153.0681125551
0	29215444	108	2147.3052248824
0	29928157	109	2143.6808430009
0	30672900	110	2139.4307413131
0	31445445	111	2134.2447707593
0	32217470	112	2127.8403112821
0	32992386	113	2119.9816189316
0	33770321	114	2110.8003366697
0	34551659	115	2101.2624189958
0	35318285	116	2091.7222546539
0	36092011	117	2082.1924369986
0	36868287	118	2072.6549025564
0	37635091	119	2063.1420702521
0	38411957	120	2053.6051998019
0	39198973	121	2043.8761584853
0	40001774	122	2033.8831720186
0	40804424	123	2023.8961281221
0	41604884	124	2013.9101811694
0	42410924	125	2003.9105792885
0	43213968	126	1993.920811001
0	44014791	127	1983.9183854107
0	44816490	128	1973.9255471046
0	45611821	129	1963.9262198092
0	46403259	130	1953.9455908071
0	47206170	131	1943.9521900876
0	48000285	132	1934.0541576338
0	48799374	133	1924.3141360725
0	49583804	134	1914.5863295605
0	50359515	135	1904.8576839126
0	51134528	136	1895.1226910779
0	51903493	137	1885.398794717
0	52686722	138	1875.6748322006
0	53459666	139	1865.9404039971
0	54231665	140	1856.2014445139
0	55048352	141	1846.4633364115
0	55866474	142	1836.7279414977
0	56686417	143	1826.6143902859
0	57533146	144	1816.5177403899
0	58401980	145	1806.4395505658
0	59274721	146	1796.4692755806
0	60178140	147	1786.5091520963
0	61123452	148	1776.5431599942
0	62083806	149	1766.6014873425
1	42	1	1578.4416120471
1	239	2	1578.4416120471
1	452	3	1579.4966245294
1	933	4	1581.3242424726
1	1757	5	1586.1879699975
1	3025	6	1592.4330167789
1	5545	7	1600.0353180049
1	10264	8	1609.0654716315
1	17676	9	1618.9022453176
1	29111	10	1628.7291004527
1	44941	11	1638.572342745
1	70091	12	1646.625630673
1	113803	13	1651.9834469669
1	182346	14	1653.7951791193
1	267195	15	1653.7951791193
1	360423	16	1653.7951791193
1	454040	17	1653.7951791193
1	559779	18	1653.7951791193
1	672015	19	1653.7951791193
1	784540	20	1653.7951791193
1	895007	21	1653.7951791193
1	1006426	22	1653.7951791193
1	1128735	23	1653.7951791193
1	1263643	24	1653.7951791193
1	1400739	25	1653.7951791193
1	1537549	26	1653.7951791193
1	1672057	27	1653.7951791193
1	1819913	28	1653.7951791193
1	1979960	29	1653.7951791193
1	2139909	30	1653.7951791193
1	2301964	31	1653.7951791193
1	2477147	32	1653.7951791193
1	2662419	33	1653.7951791193
1	2847921	34	1653.7951791193
1	3032140	35	1653.7951791193
1	3214827	36	1653.7951791193
1	3412035	37	1653.7951791193
1	3627555	38	1653.7951791193
1	3840742	39	1653.7951791193
1	4053271	40	1653.7951791193
1	4265311	41	1653.7951791193
1	4495212	42	1654.8430862101
1	4736931	43	1657.8019117434
1	4979627	44	1663.2063871743
1	5222712	45	1670.3183484674
1	5463850	46	1676.4781183181
1	5726113	47	1683.6246011918
1	6001441	48	1692.3246406689
1	6271840	49	1695.6682614107
1	6539145	50	1697.4432241702
1	6829271	51	1698.7120051831
1	7137576	52	1699.6961584166
1	7445314	53	1700.3924499508
1	7746631	54	1700.8375682207
1	8050767	55	1701.1158327069
1	8354353	56	1705.14757335
1	8657076	57	1713.823291285
1	8962449	58	1724.5469256304
1	9264427	59	1737.0225303434
1	9572847	60	1750.7283995105
1	9883209	61	1764.6436016075
1	10188633	62	1778.5572417472
1	10498252	63	1792.4651152752
1	10809116	64	1806.3549163043
1	11116472	65	1820.2387800356
1	11416212	66	1834.1319027692
1	11717703	67	1848.039583859
1	12023588	68	1861.9383479375
1	12334683	69	1875.8314783918
1	12638786	70	1889.7498650374
1	12941694	71	1903.6575185666
1	13243167	72	1917.5478907283
1	13548139	73	1931.441463979
1	13854430	74	1945.3227477288
1	14156953	75	1959.1787595721
1	14462317	76	1973.0630941
1	14767111	77	1986.9668841213
1	15069746	78	2000.8602878693
1	15369309	79	2014.7273922125
1	15671236	80	2028.602486548
1	15972557	81	2042.4955047984
1	16279588	82	2056.3851774894
1	16584299	83	2070.2898621568
1	16906646	84	2084.20461132
1	17244436	85	2098.0456787311
1	17587648	86	2110.1428971756
1	17940919	87	2117.8272589976
1	18303723	88	2120.857181468
1	18685258	89	2120.3871877454
1	19071047	90	2119.9162966991
1	19472501	91	2119.4452795638
1	19890926	92	2118.9750961456
1	20323699	93	2118.5043773819
1	20786354	94	2118.0332425665
1	21265374	95	2117.5626139157
1	21765277	96	2117.0920418268
1	22281312	97	2116.6219520699
1	22822112	98	2116.1510217823
1	23391229	99	2115.6809533741
1	23983566	100	2114.2965931976
1	24560260	101	2112.3395528598
1	25170363	102	2109.5090414342
1	25796934	103	2105.0374451596
1	26449646	104	2100.5651681134
1	27118415	105	2094.8582244609
1	27796875	106	2088.3212797362
1	28490975	107	2083.4275941541
1	29215444	108	2080.0350731742
1	29928157	109	2077.9014567873
1	30672900	110	2075.2317859745
1	31445445	111	2070.201664092
1	32217470	112	2063.3648964427
1	32992386	113	2054.9757335763
1	33770321	114	2045.1747045005
1	34551659	115	2034.9929667246
1	35318285	116	2024.8088306272
1	36092011	117	2014.6357396301
1	36868287	118	2004.4544109544
1	37635091	119	1994.2994518382
1	38411957	120	1984.1188319745
1	39198973	121	1974.133171184
1	40001774	122	1964.4189998126
1	40804424	123	1954.7106052069
1	41604884	124	1945.0032769386
1	42410924	125	1935.2826747298
1	43213968	126	1925.5716317464
1	44014791	127	1915.8482846133
1	44816490	128	1906.1342572682
1	45611821	129	1896.4139219839
1	46403259	130	1886.7117632898
1	47206170	131	1876.9971892228
1	48000285	132	1867.1844534688
1	48799374	133	1857.2034615567
1	49583804	134	1847.2349868976
1	50359515	135	1837.2656523427
1	51134528	136	1827.2898135688
1	51903493	137	1817.3253457993
1	52686722	138	1807.360810237
1	53459666	139	1797.385550064
1	54231665	140	1787.4056465067
1	55048352	141	1777.4266153928
1	55866474	142	1767.4503645934
1	56686417	143	1757.8377239136
1	57533146	144	1748.2484803125
1	58401980	145	1738.5941253565
1	59274721	146	1728.823130996
1	60178140	147	1719.0620852327
1	61123452	148	1709.2952881502
1	62083806	149	1699.5523244347
2	239	2	3.9572089270348
2	452	3	5.8966676666783
2	933	4	7.6831454034251
2	1757	5	9.5958043830082
2	3025	6	11.608105462604
2	5545	7	13.554704701301
2	10264	8	13.827483840289
2	17676	9	13.780619804119
2	29111	10	13.774097923993
2	44941	11	9.2740979239927
2	70091	12	4.7740979239927
2	113803	13	0.27409792399267
2	182346	14	0
2	267195	15	0
2	360423	16	0
2	454040	17	0
2	559779	18	0
2	672015	19	0
2	784540	20	0
2	895007	21	0
2	1006426	22	0
2	1128735	23	0
2	1263643	24	0
2	1400739	25	0
2	1537549	26	0
2	1672057	27	0
2	1819913	28	0
2	1979960	29	0
2	2139909	30	0
2	2301964	31	0
2	2477147	32	0
2	2662419	33	0
2	2847921	34	0
2	3032140	35	0
2	3214827	36	0
2	3412035	37	0
2	3627555	38	0
2	3840742	39	0
2	4053271	40	0
2	4265311	41	2.341396342422
2	4495212	42	4.3579228623832
2	4736931	43	6.297232750076
2	4979627	44	8.0187210534971
2	5222712	45	9.9040340798084
2	5463850	46	11.820713728463
2	5726113	47	13.785507081097
2	6001441	48	13.875667816706
2	6271840	49	13.888678557524
2	6539145	50	12.184583151306
2	6829271	51	9.032823627447
2	7137576	52	6.0901488774079
2	7445314	53	3.7248073543971
2	7746631	54	5.7673709107285
2	8050767	55	7.6235637587706
2	8354353	56	9.8541828012561
2	8657076	57	11.670413647869
2	8962449	58	13.34651595582
2	9264427	59	13.990924139919
2	9572847	60	13.994213748015
2	9883209	61	13.997784706887
2	10188633	62	13.919994957068
2	10498252	63	13.874534878044
2	10809116	64	13.892564047286
2	11116472	65	13.987716653978
2	11416212	66	13.887252810202
2	11717703	67	13.956991220883
2	12023588	68	13.914239585721
2	12334683	69	13.946184876158
2	12638786	70	13.920672302633
2	12941694	71	13.978679429647
2	13243167	72	13.900243088198
2	13548139	73	13.88767250004
2	13854430	74	13.871560299364
2	14156953	75	13.877581196567
2	14462317	76	13.975632182895
2	14767111	77	13.926399197225
2	15069746	78	13.898126471194
2	15369309	79	13.8990958462
2	15671236	80	13.97280263674
2	15972557	81	13.883007470635
2	16279588	82	13.992552295018
2	16584299	83	13.957777839378
2	16906646	84	13.943818341286
2	17244436	85	13.887197703735
2	17587648	86	13.958279004393
2	17940919	87	13.963077506223
2	18303723	88	13.917953974397
2	18685258	89	13.913167463047
2	19071047	90	13.963129510614
2	19472501	91	13.917924257927
2	19890926	92	13.965301514184
2	20323699	93	13.95489631583
2	20786354	94	13.926789934405
2	21265374	95	13.905085703677
2	21765277	96	13.936774030162
2	22281312	97	13.980621694801
2	22822112	98	13.928163165159
2	23391229	99	13.956286851335
2	23983566	100	13.957384532325
2	24560260	101	13.975944574759
2	25170363	102	13.887523216438
2	25796934	103	13.913884202696
2	26449646	104	13.904903099504
2	27118415	105	11.416380781681
2	27796875	106	8.2750660877713
2	28490975	107	5.4214162428152
2	29215444	108	3.6147509784042
2	29928157	109	6.1167114356137
2	30672900	110	8.247693829441
2	31445445	111	10.350156298645
2	32217470	112	12.496810770726
2	32992386	113	13.972048923236
2	33770321	114	13.948363489348
2	34551659	115	13.919963761431
2	35318285	116	13.940531731446
2	36092011	117	13.957754765034
2	36868287	118	13.912882911221
2	37635091	119	13.931318455718
2	38411957	120	13.943659652513
2	39198973	121	13.967518052855
2	40001774	122	13.897505768801
2	40804424	123	13.946886482239
2	41604884	124	13.967642545132
2	42410924	125	13.910851486514
2	43213968	126	13.957808729792
2	44014791	127	13.902036630586
2	44816490	128	13.986482233559
2	45611821	129	13.907974156232
2	46403259	130	13.936120217561
2	47206170	131	13.991028706632
2	48000285	132	13.965636191275
2	48799374	133	13.938307475075
2	49583804	134	13.967695197652
2	50359515	135	13.929983729653
2	51134528	136	13.998128671225
2	51903493	137	13.911979639553
2	52686722	138	13.901474972765
2	53459666	139	13.972334037956
2	54231665	140	13.913725603274
2	55048352	141	13.947464926713
2	55866474	142	13.953595378974
2	56686417	143	13.902272182149
2	57533146	144	13.945075226815
2	58401980	145	13.991174844482
2	59274721	146	13.993004744409
2	60178140	147	13.984998510832
2	61123452	148	13.940930782091
2	62083806	149	13.997164493594
3	452	3	2416.8733999323
3	933	4	2416.8733999323
3	1757	5	2415.6091245101
3	3025	6	2414.3297608945
3	5545	7	2413.0608086878
3	10264	8	2411.784071286
3	17676	9	2410.5084319564
3	29111	10	2409.2382968365
3	44941	11	2407.9741699421
3	70091	12	2406.9264332583
3	113803	13	2405.9705753099
3	182346	14	2405.0127915443
3	267195	15	2404.0620217433
3	360423	16	2403.1120463513
3	454040	17	2402.1530120872
3	559779	18	2401.195836457
3	672015	19	2400.249009397
3	784540	20	2399.2948450497
3	895007	21	2398.3462159754
3	1006426	22	2397.4000799049
3	1128735	23	2396.4478509233
3	1263643	24	2395.4995078107
3	1400739	25	2394.5470105201
3	1537549	26	2393.5881657234
3	1672057	27	2392.6385666089
3	1819913	28	2391.6811003394
3	1979960	29	2390.7322746279
3	2139909	30	2389.7807841415
3	2301964	31	2388.8279439007
3	2477147	32	2387.8818115046
3	2662419	33	2386.9338306915
3	2847921	34	2385.9807682297
3	3032140	35	2385.0248441817
3	3214827	36	2384.0806117429
3	3412035	37	2383.134864015
3	3627555	38	2382.1851646596
3	3840742	39	2381.2369177836
3	4053271	40	2380.2903374197
3	4265311	41	2379.3412074929
3	4495212	42	2378.3889002138
3	4736931	43	2377.4426818109
3	4979627	44	2376.4944137797
3	5222712	45	2375.5412286645
3	5463850	46	2374.5853626007
3	5726113	47	2373.6357392023
3	6001441	48	2372.692667178
3	6271840	49	2371.7490485441
3	6539145	50	2370.7988860424
3	6829271	51	2369.8452516927
3	7137576	52	2368.8971139035
3	7445314	53	2367.9384829677
3	7746631	54	2366.9878984872
3	8050767	55	2366.0373554967
3	8354353	56	2365.0829230784
3	8657076	57	2364.1326507836
3	8962449	58	2363.1886280864
3	9264427	59	2362.2424947449
3	9572847	60	2361.2913599727
3	9883209	61	2360.3364864716
3	10188633	62	2359.382334115
3	10498252	63	2358.4385471408
3	10809116	64	2357.4792812344
3	11116472	65	2356.5275926044
3	11416212	66	2355.5743624067
3	11717703	67	2354.6239173049
3	12023588	68	2353.6817165394
3	12334683	69	2352.7275992931
3	12638786	70	2351.775989439
3	12941694	71	2350.8228587795
3	13243167	72	2349.8680061267
3	13548139	73	2348.9185988631
3	13854430	74	2347.9709955091
3	14156953	75	2347.0126587533
3	14462317	76	2346.0612238974
3	14767111	77	2345.111196158
3	15069746	78	2344.1616260377
3	15369309	79	2343.2115505867
3	15671236	80	2342.3603202367
3	15972557	81	2341.5245982321
3	16279588	82	2340.6931252765
3	16584299	83	2339.8605317896
3	16906646	84	2339.0309398472
3	17244436	85	2338.2045774654
3	17587648	86	2337.3751299453
3	17940919	87	2336.5440631324
3	18303723	88	2335.7101531302
3	18685258	89	2335.2148286357
3	19071047	90	2334.992126326
3	19472501	91	2334.7711676578
3	19890926	92	2334.5504467448
3	20323699	93	2334.3280693226
3	20786354	94	2334.1055071866
3	21265374	95	2333.9498430337
3	21765277	96	2333.8549312047
3	22281312	97	2333.9544207564
3	22822112	98	2334.1650831084
3	23391229	99	2334.7365031659
3	23983566	100	2335.4644253515
3	24560260	101	2336.3808056843
3	25170363	102	2337.4193699701
3	25796934	103	2338.4746018797
3	26449646	104	2339.5312062956
3	27118415	105	2340.5819331093
3	27796875	106	2341.6383991021
3	28490975	107	2342.6890803128
3	29215444	108	2343.7395942376
3	29928157	109	2344.7975313618
3	30672900	110	2345.8214575307
3	31445445	111	2346.8310612149
3	32217470	112	2347.8398125665
3	32992386	113	2348.851117554
3	33770321	114	2349.8541730711
3	34551659	115	2350.8524930392
3	35318285	116	2351.8687985034
3	36092011	117	2352.8802439113
3	36868287	118	2353.8822150197
3	37635091	119	2354.8908520404
3	38411957	120	2355.888052452
3	39198973	121	2356.8889651807
3	40001774	122	2357.8932116326
3	40804424	123	2358.9015078758
3	41604884	124	2359.9103698495
3	42410924	125	2360.9116064673
3	43213968	126	2362.1740438371
3	44014791	127	2363.5180652542
3	44816490	128	2364.861051789
3	45611821	129	2366.2013761741
3	46403259	130	2367.5443788206
3	47206170	131	2368.8875977445
3	48000285	132	2370.2283558866
3	48799374	133	2371.5686545292
3	49583804	134	2372.9112656947
3	50359515	135	2374.2551432062
3	51134528	136	2375.5913082672
3	51903493	137	2376.9274837014
3	52686722	138	2378.2613487688
3	53459666	139	2379.6111029878
3	54231665	140	2380.9574651055
3	55048352	141	2382.3106905476
3	55866474	142	2383.651291073
3	56686417	143	2385.002706368
3	57533146	144	2386.3440601925
3	58401980	145	2387.6915993053
3	59274721	146	2389.0311389116
3	60178140	147	2390.3961107156
3	61123452	148	2391.7503202428
3	62083806	149	2393.1034002438
4	452	3	1577.7175120478
4	933	4	1577.7175120478
4	1757	5	1578.1817473844
4	3025	6	1578.6515230266
4	5545	7	1579.117475654
4	10264	8	1579.5862869648
4	17676	9	1580.0546950689
4	29111	10	1580.5210820567
4	44941	11	1580.985262854
4	70091	12	1581.7919730702
4	113803	13	1582.760125488
4	182346	14	1583.730228493
4	267195	15	1584.6932273181
4	360423	16	1585.6554215169
4	454040	17	1586.6267911047
4	559779	18	1587.5962781524
4	672015	19	1588.5552835241
4	784540	20	1589.5217205575
4	895007	21	1590.4825511212
4	1006426	22	1591.440856616
4	1128735	23	1592.4053333895
4	1263643	24	1593.3658743147
4	1400739	25	1594.3306228481
4	1537549	26	1595.3018005323
4	1672057	27	1596.2636136133
4	1819913	28	1597.2333950382
4	1979960	29	1598.1944247689
4	2139909	30	1599.1581535488
4	2301964	31	1600.1232494442
4	2477147	32	1601.0815512175
4	2662419	33	1602.041725182
4	2847921	34	1603.0070461575
4	3032140	35	1603.9752655244
4	3214827	36	1604.9316429021
4	3412035	37	1605.8895550594
4	3627555	38	1606.8514696704
4	3840742	39	1607.8119131206
4	4053271	40	1608.770668623
4	4265311	41	1609.7320064818
4	4495212	42	1610.6965625603
4	4736931	43	1611.6549514467
4	4979627	44	1612.6154163238
4	5222712	45	1613.5808615293
4	5463850	46	1614.549022167
4	5726113	47	1615.5108598443
4	6001441	48	1616.4660618817
4	6271840	49	1617.4218175607
4	6539145	50	1618.3842012752
4	6829271	51	1619.3501014933
4	7137576	52	1620.3104344532
4	7445314	53	1621.2813955257
4	7746631	54	1622.2442066465
4	8050767	55	1623.2069757441
4	8354353	56	1624.1736842962
4	8657076	57	1625.1361792162
4	8962449	58	1626.0923441546
4	9264427	59	1627.0506468853
4	9572847	60	1628.0140153756
4	9883209	61	1628.9811706841
4	10188633	62	1629.9475955721
4	10498252	63	1630.9035217557
4	10809116	64	1631.8751259651
4	11116472	65	1632.8390554376
4	11416212	66	1633.8045463059
4	11717703	67	1634.7672162559
4	12023588	68	1635.721535828
4	12334683	69	1636.6879251543
4	12638786	70	1637.6517748376
4	12941694	71	1638.6171648875
4	13243167	72	1639.5842990791
4	13548139	73	1640.5459178416
4	13854430	74	1641.5057094926
4	14156953	75	1642.4763726005
4	14462317	76	1643.4400450345
4	14767111	77	1644.4022922534
4	15069746	78	1645.364075968
4	15369309	79	1646.3263715124
4	15671236	80	1647.3728974406
4	15972557	81	1648.4427516796
4	16279588	82	1649.5071664751
4	16584299	83	1650.5730157252
4	16906646	84	1651.6350225303
4	17244436	85	1652.6928949961
4	17587648	86	1653.7547169188
4	17940919	87	1654.8186117886
4	18303723	88	1655.8861463824
4	18685258	89	1657.113830531
4	19071047	90	1658.4550302615
4	19472501	91	1659.7857291065
4	19890926	92	1661.114996098
4	20323699	93	1662.4542392297
4	20786354	94	1663.7945947805
4	21265374	95	1665.1405570246
4	21765277	96	1666.4851412689
4	22281312	97	1667.8326116549
4	22822112	98	1669.1688128579
4	23391229	99	1670.3854994532
4	23983566	100	1671.5055349944
4	24560260	101	1672.4924061215
4	25170363	102	1673.3605221407
4	25796934	103	1674.2126853671
4	26449646	104	1675.0659569744
4	27118415	105	1675.9144820645
4	27796875	106	1676.7676418871
4	28490975	107	1677.6161301499
4	29215444	108	1678.4644833189
4	29928157	109	1679.3188311681
4	30672900	110	1680.2024094658
4	31445445	111	1681.1128953565
4	32217470	112	1682.0226125913
4	32992386	113	1682.9346327595
4	33770321	114	1683.8392133489
4	34551659	115	1684.7395233009
4	35318285	116	1685.6560530243
4	36092011	117	1686.5681998273
4	36868287	118	1687.4718024693
4	37635091	119	1688.3814165974
4	38411957	120	1689.2807169063
4	39198973	121	1690.1833650749
4	40001774	122	1691.0890196785
4	40804424	123	1691.998326486
4	41604884	124	1692.9081434831
4	42410924	125	1693.8110837433
4	43213968	126	1694.1490409486
4	44014791	127	1694.3499297034
4	44816490	128	1694.5506637758
4	45611821	129	1694.7509999415
4	46403259	130	1694.9517364213
4	47206170	131	1695.1525052292
4	48000285	132	1695.3529062271
4	48799374	133	1695.5532385446
4	49583804	134	1695.7539165113
4	50359515	135	1695.9547837563
4	51134528	136	1696.1544982335
4	51903493	137	1696.3542142613
4	52686722	138	1696.5182264205
4	53459666	139	1696.678877295
4	54231665	140	1696.8391244337
4	55048352	141	1697.0001884606
4	55866474	142	1697.1597498404
4	56686417	143	1697.3205984198
4	57533146	144	1697.4802494599
4	58401980	145	1697.6117281048
4	59274721	146	1697.7383905202
4	60178140	147	1697.8674577195
4	61123452	148	1697.9955072729
4	62083806	149	1698.1234500231
5	452	3	1.9394587396434
5	933	4	1.7864777367469
5	1757	5	1.9126589795831
5	3025	6	2.0123010795959
5	5545	7	1.9465992386965
5	10264	8	0.27277913898843
5	17676	9	-0.0468640361703
5	29111	10	-0.0065218801260922
5	44941	11	-4.5
5	70091	12	-4.5
5	113803	13	-4.5
5	182346	14	-0.27409792399267
5	267195	15	0
5	360423	16	0
5	454040	17	0
5	559779	18	0
5	672015	19	0
5	784540	20	0
5	895007	21	0
5	1006426	22	0
5	1128735	23	0
5	1263643	24	0
5	1400739	25	0
5	1537549	26	0
5	1672057	27	0
5	1819913	28	0
5	1979960	29	0
5	2139909	30	0
5	2301964	31	0
5	2477147	32	0
5	2662419	33	0
5	2847921	34	0
5	3032140	35	0
5	3214827	36	0
5	3412035	37	0
5	3627555	38	0
5	3840742	39	0
5	4053271	40	0
5	4265311	41	2.341396342422
5	4495212	42	2.0165265199612
5	4736931	43	1.9393098876928
5	4979627	44	1.7214883034211
5	5222712	45	1.8853130263113
5	5463850	46	1.9166796486545
5	5726113	47	1.9647933526345
5	6001441	48	0.090160735608078
5	6271840	49	0.01301074081799
5	6539145	50	-1.7040954062175
5	6829271	51	-3.151759523859
5	7137576	52	-2.9426747500391
5	7445314	53	-2.3653415230108
5	7746631	54	2.0425635563314
5	8050767	55	1.8561928480421
5	8354353	56	2.2306190424855
5	8657076	57	1.8162308466132
5	8962449	58	1.6761023079511
5	9264427	59	0.64440818409887
5	9572847	60	0.0032896080962388
5	9883209	61	0.00357095887186
5	10188633	62	-0.077789749819786
5	10498252	63	-0.045460079023613
5	10809116	64	0.018029169242363
5	11116472	65	0.0951526066917
5	11416212	66	-0.10046384377638
5	11717703	67	0.069738410681021
5	12023588	68	-0.042751635161695
5	12334683	69	0.031945290437434
5	12638786	70	-0.025512573525775
5	12941694	71	0.058007127013989
5	13243167	72	-0.078436341448686
5	13548139	73	-0.012570588157978
5	13854430	74	-0.016112200675998
5	14156953	75	0.0060208972031237
5	14462317	76	0.098050986328163
5	14767111	77	-0.049232985670677
5	15069746	78	-0.028272726030556
5	15369309	79	0.00096937500638994
5	15671236	80	0.073706790539436
5	15972557	81	-0.089795166105032
5	16279588	82	0.10954482438276
5	16584299	83	-0.034774455639999
5	16906646	84	-0.013959498091134
5	17244436	85	-0.056620637550951
5	17587648	86	0.071081300657243
5	17940919	87	0.0047985018300825
5	18303723	88	-0.045123531825375
5	18685258	89	-0.0047865113499572
5	19071047	90	0.049962047566661
5	19472501	91	-0.045205252687447
5	19890926	92	0.047377256257459
5	20323699	93	-0.010405198354274
5	20786354	94	-0.028106381425168
5	21265374	95	-0.021704230727627
5	21765277	96	0.031688326485455
5	22281312	97	0.043847664638887
5	22822112	98	-0.052458529642317
5	23391229	99	0.02812368617626
5	23983566	100	0.0010976809891865
5	24560260	101	0.018560042434839
5	25170363	102	-0.088421358321794
5	25796934	103	0.02636098625837
5	26449646	104	-0.0089811031916192
5	27118415	105	-2.4885223178236
5	27796875	106	-3.1413146939094
5	28490975	107	-2.8536498449561
5	29215444	108	-1.8066652644109
5	29928157	109	2.5019604572095
5	30672900	110	2.1309823938273
5	31445445	111	2.1024624692043
5	32217470	112	2.146654472081
5	32992386	113	1.4752381525095
5	33770321	114	-0.023685433887877
5	34551659	115	-0.028399727917277
5	35318285	116	0.02056797001511
5	36092011	117	0.01722303358838
5	36868287	118	-0.044871853813531
5	37635091	119	0.018435544497335
5	38411957	120	0.012341196795459
5	39198973	121	0.023858400341124
5	40001774	122	-0.070012284053956
5	40804424	123	0.049380713438149
5	41604884	124	0.020756062893197
5	42410924	125	-0.05679105861811
5	43213968	126	0.046957243278158
5	44014791	127	-0.055772099206223
5	44816490	128	0.084445602972991
5	45611821	129	-0.078508077326697
5	46403259	130	0.028146061329172
5	47206170	131	0.054908489070366
5	48000285	132	-0.025392515356652
5	48799374	133	-0.027328716199845
5	49583804	134	0.029387722576503
5	50359515	135	-0.037711467999035
5	51134528	136	0.0681449415721
5	51903493	137	-0.08614903167123
5	52686722	138	-0.010504666788037
5	53459666	139	0.070859065190888
5	54231665	140	-0.058608434682245
5	55048352	141	0.033739323439075
5	55866474	142	0.006130452260841
5	56686417	143	-0.051323196825106
5	57533146	144	0.042803044666071
5	58401980	145	0.046099617667496
5	59274721	146	0.0018298999266708
5	60178140	147	-0.0080062335776176
5	61123452	148	-0.044067728740629
5	62083806	149	0.056233711503447
6	452	3	4.1695546184085
6	933	4	4.8304427410518
6	1757	5	6.0777192532467
6	3025	6	7.4439910681832
6	5545	7	8.3528641489679
6	10264	8	2.9302852404392
6	17676	9	1.8608925099174
6	29111	10	1.9942265821232
6	44941	11	0.973
6	70091	12	0.973
6	113803	13	0.973
6	182346	14	0.973
6	267195	15	0.973
6	360423	16	0.973
6	454040	17	0.973
6	559779	18	0.973
6	672015	19	0.973
6	784540	20	0.973
6	895007	21	0.973
6	1006426	22	0.973
6	1128735	23	0.973
6	1263643	24	0.973
6	1400739	25	0.973
6	1537549	26	0.973
6	1672057	27	0.973
6	1819913	28	0.973
6	1979960	29	0.973
6	2139909	30	0.973
6	2301964	31	0.973
6	2477147	32	0.973
6	2662419	33	0.973
6	2847921	34	0.973
6	3032140	35	0.973
6	3214827	36	0.973
6	3412035	37	0.973
6	3627555	38	0.973
6	3840742	39	0.973
6	4053271	40	0.973
6	4265311	41	2.545329698065
6	4495212	42	3.4457477469991
6	4736931	43	4.3800080072216
6	4979627	44	4.87125033336
6	5222712	45	6.1775166336307
6	5463850	46	7.2930350680445
6	5726113	47	8.544674221522
6	6001441	48	2.3276568301543
6	6271840	49	2.0710277907514
6	6539145	50	0.973
6	6829271	51	0.973
6	7137576	52	0.973
6	7445314	53	0.973
6	7746631	54	4.2449731266916
6	8050767	55	4.9290350831268
6	8354353	56	6.9711657705851
6	8657076	57	6.9280922087184
6	8962449	58	7.3646586366114
6	9264427	59	4.2107408676415
6	9572847	60	2.0493488960536
6	9883209	61	2.0506669767476
6	10188633	62	1.7697044793006
6	10498252	63	1.8740332639622
6	10809116	64	2.0882374202118
6	11116472	65	2.3583516829634
6	11416212	66	1.6910984230697
6	11717703	67	2.2690184392196
6	12023588	68	1.8867202259085
6	12334683	69	2.1407087525418
6	12638786	70	1.9451445901371
6	12941694	71	2.2320807887813
6	13243167	72	1.7658967230716
6	13548139	73	1.9853034319846
6	13854430	74	1.9718750092394
6	14156953	75	2.0464873727656
6	14462317	76	2.3665990249525
6	14767111	77	1.8660814099134
6	15069746	78	1.9337417514339
6	15369309	79	2.0317855467718
6	15671236	80	2.2842647817495
6	15972557	81	1.726464895081
6	16279588	82	2.4074916501482
6	16584299	83	1.917549138746
6	16906646	84	1.9861876163265
6	17244436	85	1.837829238423
6	17587648	86	2.2736891420819
6	17940919	87	2.0512136520367
6	18303723	88	1.879104608496
6	18685258	89	2.0139218774864
6	19071047	90	2.2031995204389
6	19472501	91	1.8788277931089
6	19890926	92	2.1947483579149
6	20323699	93	1.9992357175606
6	20786354	94	1.9370250381262
6	21265374	95	1.9564146218179
6	21765277	96	2.1388123189868
6	22281312	97	2.1845989320357
6	22822112	98	1.8554132552171
6	23391229	99	2.128964923448
6	23983566	100	2.0381763974742
6	24560260	101	2.0988967794726
6	25170363	102	1.7314242846583
6	25796934	103	2.1184393038295
6	26449646	104	1.9990332226498
6	27118415	105	0.973
6	27796875	106	0.973
6	28490975	107	0.973
6	29215444	108	0.973
6	29928157	109	5.1144198190963
6	30672900	110	5.7954388186215
6	31445445	111	6.9560747511326
6	32217470	112	8.3582822542752
6	32992386	113	7.0035000608702
6	33770321	114	1.95394229857
6	34551659	115	1.9353911469937
6	35318285	116	2.1018639090637
6	36092011	117	2.0924571101324
6	36868287	118	1.8794868689399
6	37635091	119	2.0937184008035
6	38411957	120	2.0745533774944
6	39198973	121	2.1158319038745
6	40001774	122	1.7938845572577
6	40804424	123	2.1993897569717
6	41604884	124	2.1054022621163
6	42410924	125	1.8393425660922
6	43213968	126	2.1924837342251
6	44014791	127	1.8419794612742
6	44816490	128	2.3221063489042
6	45611821	129	1.7662972915289
6	46403259	130	2.1268435240047
6	47206170	131	2.2230703994927
6	48000285	132	1.9498638601209
6	48799374	133	1.9407345137929
6	49583804	134	2.1344639306322
6	50359515	135	1.9050836993654
6	51134528	136	2.2685460392685
6	51903493	137	1.7410110212912
6	52686722	138	1.9935872973009
6	53459666	139	2.2746192604757
6	54231665	140	1.8335020051979
6	55048352	141	2.1468797138364
6	55866474	142	2.054712376996
6	56686417	143	1.8569060891552
6	57533146	144	2.1770772126083
6	58401980	145	2.1933849141043
6	59274721	146	2.044301409061
6	60178140	147	2.0103258984298
6	61123452	148	1.8847459157373
6	62083806	149	2.2282509867408
7	933	4	1.3815341939982
7	1757	5	1.3262084394874
7	3025	6	1.363631196291
7	5545	7	1.3752373363402
7	10264	8	1.3806439087299
7	17676	9	1.3687912436823
7	29111	10	1.3227257632469
7	44941	11	1.3875560277342
7	70091	12	1.3563021408562
7	113803	13	1.3770148199466
7	182346	14	1.3849709489861
7	267195	15	1.3274071066472
7	360423	16	1.3774334117059
7	454040	17	1.3727984982284
7	559779	18	1.3606082522407
7	672015	19	1.3348128196635
7	784540	20	1.3276360128495
7	895007	21	1.3865760676142
7	1006426	22	1.3201798767518
7	1128735	23	1.3625654933437
7	1263643	24	1.3572608231657
7	1400739	25	1.3650964595662
7	1537549	26	1.3512930004476
7	1672057	27	1.3467187932434
7	1819913	28	1.362476723136
7	1979960	29	1.3812649679959
7	2139909	30	1.3616271679024
7	2301964	31	1.3277306860578
7	2477147	32	1.3434665328209
7	2662419	33	1.3413801577473
7	2847921	34	1.3672579118186
7	3032140	35	1.3381204713369
7	3214827	36	1.3353315650764
7	3412035	37	1.3523743778933
7	3627555	38	1.3524599258542
7	3840742	39	1.3339054568011
7	4053271	40	1.3286902144804
7	4265311	41	1.3771310633618
7	4495212	42	1.343018321495
7	4736931	43	1.3678269498471
7	4979627	44	1.3537326239425
7	5222712	45	1.3752328969713
7	5463850	46	1.3208840114627
7	5726113	47	1.3354313181642
7	6001441	48	1.3332072315582
7	6271840	49	1.3383004190109
7	6539145	50	1.33413413968
7	6829271	51	1.3372265399893
7	7137576	52	1.3426422630275
7	7445314	53	1.3801133663381
7	7746631	54	1.3261075822649
7	8050767	55	1.3375043415807
7	8354353	56	1.3499028666249
7	8657076	57	1.3332449014221
7	8962449	58	1.3247306737887
7	9264427	59	1.3306786776553
7	9572847	60	1.3851622981343
7	9883209	61	1.3871795463072
7	10188633	62	1.3805286533089
7	10498252	63	1.3824805839815
7	10809116	64	1.3600420168789
7	11116472	65	1.3231655897107
7	11416212	66	1.3574094403076
7	11717703	67	1.3635087827182
7	12023588	68	1.3580212693099
7	12334683	69	1.3691022878953
7	12638786	70	1.3638716555983
7	12941694	71	1.3494832679539
7	13243167	72	1.3876268733778
7	13548139	73	1.3212834199496
7	13854430	74	1.3723697795164
7	14156953	75	1.3512544525373
7	14462317	76	1.3886964615409
7	14767111	77	1.3781569708307
7	15069746	78	1.3626821450048
7	15369309	79	1.3213162336292
7	15671236	80	1.3458040896027
7	15972557	81	1.3586034847119
7	16279588	82	1.3682741064177
7	16584299	83	1.3659476973731
7	16906646	84	1.3208662603413
7	17244436	85	1.3481717095743
7	17587648	86	1.3378463850919
7	17940919	87	1.3572962709198
7	18303723	88	1.3205168958262
7	18685258	89	1.3450882908526
7	19071047	90	1.324608698746
7	19472501	91	1.346193387144
7	19890926	92	1.3671496197316
7	20323699	93	1.3577013750425
7	20786354	94	1.3315196666938
7	21265374	95	1.3429034114395
7	21765277	96	1.3614182474622
7	22281312	97	1.3756337306404
7	22822112	98	1.3475554091727
7	23391229	99	1.3218649788986
7	23983566	100	1.382738648972
7	24560260	101	1.3417966025493
7	25170363	102	1.3811676407608
7	25796934	103	1.3867121524203
7	26449646	104	1.3403383597324
7	27118415	105	1.3659135222002
7	27796875	106	1.3457514368606
7	28490975	107	1.3732739109966
7	29215444	108	1.3303257246379
7	29928157	109	1.3352487155256
7	30672900	110	1.328563352856
7	31445445	111	1.3394369153442
7	32217470	112	1.3299994738999
7	32992386	113	1.3312332204077
7	33770321	114	1.3267664129509
7	34551659	115	1.3839116962885
7	35318285	116	1.347666421045
7	36092011	117	1.3369592158253
7	36868287	118	1.3417263426527
7	37635091	119	1.3387757614772
7	38411957	120	1.3411002560234
7	39198973	121	1.3466661220041
7	40001774	122	1.3589898138242
7	40804424	123	1.3639412020307
7	41604884	124	1.3609570588192
7	42410924	125	1.3559669598342
7	43213968	126	1.3716663847542
7	44014791	127	1.3569234198884
7	44816490	128	1.3677689128639
7	45611821	129	1.347412275338
7	46403259	130	1.343430765911
7	47206170	131	1.3858252536415
7	48000285	132	1.375154515392
7	48799374	133	1.3597027392663
7	49583804	134	1.3707539071846
7	50359515	135	1.3249639225897
7	51134528	136	1.3480628646115
7	51903493	137	1.3540562709871
7	52686722	138	1.3284586931695
7	53459666	139	1.3328728781522
7	54231665	140	1.3777913245334
7	55048352	141	1.3594318034302
7	55866474	142	1.3389159690188
7	56686417	143	1.3724621828038
7	57533146	144	1.3869337418227
7	58401980	145	1.3391108002624
7	59274721	146	1.3634663574016
7	60178140	147	1.3687133908065
7	61123452	148	1.3260332920052
7	62083806	149	1.3881297878106
8	1757	5	-0.055325754510704
8	3025	6	0.037422756803507
8	5545	7	0.011606140049278
8	10264	8	0.0054065723897008
8	17676	9	-0.011852665047627
8	29111	10	-0.04606548043537
8	44941	11	0.064830264487278
8	70091	12	-0.031253886877999
8	113803	13	0.02071267909034
8	182346	14	0.007956129039586
8	267195	15	-0.057563842338924
8	360423	16	0.050026305058661
8	454040	17	-0.0046349134774777
8	559779	18	-0.012190245987666
8	672015	19	-0.025795432577272
8	784540	20	-0.0071768068139337
8	895007	21	0.058940054764713
8	1006426	22	-0.066396190862482
8	1128735	23	0.042385616591976
8	1263643	24	-0.0053046701779953
8	1400739	25	0.0078356364004626
8	1537549	26	-0.013803459118612
8	1672057	27	-0.004574207204213
8	1819913	28	0.015757929892667
8	1979960	29	0.018788244859833
8	2139909	30	-0.01963780009343
8	2301964	31	-0.033896481844648
8	2477147	32	0.015735846763063
8	2662419	33	-0.0020863750736073
8	2847921	34	0.025877754071391
8	3032140	35	-0.029137440481766
8	3214827	36	-0.0027889062605229
8	3412035	37	0.017042812816928
8	3627555	38	8.5547960932519e-05
8	3840742	39	-0.018554469053116
8	4053271	40	-0.0052152423207492
8	4265311	41	0.048440848881405
8	4495212	42	-0.034112741866718
8	4736931	43	0.024808628352023
8	4979627	44	-0.014094325904605
8	5222712	45	0.021500273028829
8	5463850	46	-0.054348885508565
8	5726113	47	0.014547306701489
8	6001441	48	-0.0022240866059697
8	6271840	49	0.0050931874526821
8	6539145	50	-0.0041662793309014
8	6829271	51	0.0030924003092676
8	7137576	52	0.0054157230382164
8	7445314	53	0.037471103310559
8	7746631	54	-0.05400578407312
8	8050767	55	0.011396759315782
8	8354353	56	0.012398525044167
8	8657076	57	-0.01665796520279
8	8962449	58	-0.0085142276333903
8	9264427	59	0.0059480038665545
8	9572847	60	0.054483620479004
8	9883209	61	0.0020172481729082
8	10188633	62	-0.0066508929982472
8	10498252	63	0.001951930672577
8	10809116	64	-0.022438567102654
8	11116472	65	-0.036876427168156
8	11416212	66	0.034243850596896
8	11717703	67	0.006099342410582
8	12023588	68	-0.0054875134082977
8	12334683	69	0.011081018585375
8	12638786	70	-0.0052306322969444
8	12941694	71	-0.014388387644431
8	13243167	72	0.03814360542391
8	13548139	73	-0.066343453428191
8	13854430	74	0.051086359566802
8	14156953	75	-0.021115326979068
8	14462317	76	0.037442009003522
8	14767111	77	-0.010539490710168
8	15069746	78	-0.015474825825853
8	15369309	79	-0.041365911375679
8	15671236	80	0.02448785597355
8	15972557	81	0.012799395109242
8	16279588	82	0.0096706217057847
8	16584299	83	-0.0023264090446498
8	16906646	84	-0.045081437031816
8	17244436	85	0.027305449233002
8	17587648	86	-0.010325324482336
8	17940919	87	0.019449885827877
8	18303723	88	-0.036779375093627
8	18685258	89	0.024571395026417
8	19071047	90	-0.020479592106616
8	19472501	91	0.02158468839803
8	19890926	92	0.0209562325876
8	20323699	93	-0.009448244689136
8	20786354	94	-0.026181708348708
8	21265374	95	0.011383744745722
8	21765277	96	0.018514836022708
8	22281312	97	0.014215483178204
8	22822112	98	-0.028078321467749
8	23391229	99	-0.025690430274052
8	23983566	100	0.060873670073407
8	24560260	101	-0.040942046422667
8	25170363	102	0.039371038211458
8	25796934	103	0.0055445116595365
8	26449646	104	-0.046373792687922
8	27118415	105	0.025575162467754
8	27796875	106	-0.020162085339608
8	28490975	107	0.027522474136074
8	29215444	108	-0.042948186358747
8	29928157	109	0.0049229908876844
8	30672900	110	-0.0066853626695875
8	31445445	111	0.010873562488187
8	32217470	112	-0.009437441444283
8	32992386	113	0.0012337465078518
8	33770321	114	-0.0044668074567906
8	34551659	115	0.057145283337579
8	35318285	116	-0.036245275243548
8	36092011	117	-0.01070720521966
8	36868287	118	0.0047671268273715
8	37635091	119	-0.0029505811754562
8	38411957	120	0.0023244945461758
8	39198973	121	0.0055658659807198
8	40001774	122	0.012323691820105
8	40804424	123	0.004951388206488
8	41604884	124	-0.0029841432115063
8	42410924	125	-0.0049900989850153
8	43213968	126	0.015699424919957
8	44014791	127	-0.014742964865743
8	44816490	128	0.010845492975528
8	45611821	129	-0.020356637525967
8	46403259	130	-0.0039815094270226
8	47206170	131	0.042394487730538
8	48000285	132	-0.010670738249448
8	48799374	133	-0.015451776125701
8	49583804	134	0.011051167918292
8	50359515	135	-0.045789984594901
8	51134528	136	0.023098942021736
8	51903493	137	0.0059934063756373
8	52686722	138	-0.025597577817583
8	53459666	139	0.0044141849826296
8	54231665	140	0.044918446381214
8	55048352	141	-0.018359521103169
8	55866474	142	-0.020515834411425
8	56686417	143	0.033546213784979
8	57533146	144	0.014471559018906
8	58401980	145	-0.047822941560298
8	59274721	146	0.024355557139238
8	60178140	147	0.0052470334048849
8	61123452	148	-0.042680098801308
8	62083806	149	0.062096495805438
9	1757	5	1.1565087663652
9	3025	6	1.1883142423226
9	5545	7	1.1804283709916
9	10264	8	1.1786443373533
9	17676	9	1.1723574585004
9	29111	10	1.159337466769
9	44941	11	1.1988617963627
9	70091	12	1.1654425789418
9	113803	13	1.1835421226748
9	182346	14	1.1797119907796
9	267195	15	1.1558352166949
9	360423	16	1.1932956189315
9	454040	17	1.1749293615559
9	559779	18	1.1718711670424
9	672015	19	1.1663129424575
9	784540	20	1.1719650452881
9	895007	21	1.1968303886412
9	1006426	22	1.1527731980618
9	1128735	23	1.1898823679787
9	1263643	24	1.1739700789996
9	1400739	25	1.178665082705
9	1537549	26	1.1709190579618
9	1672057	27	1.1737067468565
9	1819913	28	1.1811337488505
9	1979960	29	1.1831299908486
9	2139909	30	1.1694739183869
9	2301964	31	1.1634196505029
9	2477147	32	1.1801277088627
9	2662419	33	1.174256671581
9	2847921	34	1.1847195938334
9	3032140	35	1.1653758239904
9	3214827	36	1.1737388412296
9	3412035	37	1.1810216595161
9	3627555	38	1.1754990819841
9	3840742	39	1.1686021256832
9	4053271	40	1.172642713071
9	4265311	41	1.1927510346786
9	4495212	42	1.1639697994093
9	4736931	43	1.184398454652
9	4979627	44	1.1709349713044
9	5222712	45	1.183707365748
9	5463850	46	1.1566312940287
9	5726113	47	1.1793231041065
9	6001441	48	1.1738182213159
9	6271840	49	1.1764237485128
9	6539145	50	1.1732384293491
9	6829271	51	1.1757252969726
9	7137576	52	1.176745055667
9	7445314	53	1.1892826702752
9	7746631	54	1.1569270485317
9	8050767	55	1.1784158578668
9	8354353	56	1.1793801218004
9	8657076	57	1.1691822581691
9	8962449	58	1.1714015156286
9	9264427	59	1.1763170927998
9	9572847	60	1.195253688693
9	9883209	61	1.1778385154062
9	10188633	62	1.1746269583492
9	10498252	63	1.1775852932818
9	10809116	64	1.1684861314724
9	11116472	65	1.1622842464938
9	11416212	66	1.1869148662197
9	11717703	67	1.1780141200782
9	12023588	68	1.1739463376914
9	12334683	69	1.1799387889756
9	12638786	70	1.174308261326
9	12941694	71	1.1706466285417
9	13243167	72	1.1899418574671
9	13548139	73	1.1528261012766
9	13854430	74	1.1933382512864
9	14156953	75	1.1685361803841
9	14462317	76	1.1897690505326
9	14767111	77	1.1732235567127
9	15069746	78	1.1708875074493
9	15369309	79	1.1607809542959
9	15671236	80	1.1830891247408
9	15972557	81	1.179961513977
9	16279588	82	1.1794311117641
9	16584299	83	1.1753629155317
9	16906646	84	1.1595807571001
9	17244436	85	1.1841339644068
9	17587648	86	1.1714298116089
9	17940919	87	1.1820691850193
9	18303723	88	1.1622096167392
9	18685258	89	1.1830770917124
9	19071047	90	1.1675761108861
9	19472501	91	1.1821685151623
9	19890926	92	1.1830920804058
9	20323699	93	1.1726351904255
9	20786354	94	1.1660489767683
9	21265374	95	1.1786896136945
9	21765277	96	1.1819826699882
9	22281312	97	1.181313879228
9	22822112	98	1.1661133874944
9	23391229	99	1.1657959503919
9	23983566	100	1.1972330817381
9	24560260	101	1.1617118849273
9	25170363	102	1.1899760210706
9	25796934	103	1.1789942950214
9	26449646	104	1.159900629938
9	27118415	105	1.1845460516616
9	27796875	106	1.1686051064453
9	28490975	107	1.1855947900627
9	29215444	108	1.1606228530551
9	29928157	109	1.1762165087973
9	30672900	110	1.1721659819799
9	31445445	111	1.1783464625913
9	32217470	112	1.1713515264246
9	32992386	113	1.1748324490874
9	33770321	114	1.1727906995553
9	34551659	115	1.1960639992113
9	35318285	116	1.1634655219982
9	36092011	117	1.171265737717
9	36868287	118	1.1764894914374
9	37635091	119	1.1738522171282
9	38411957	120	1.1756687861452
9	39198973	121	1.1769951632077
9	40001774	122	1.1798257391663
9	40804424	123	1.1776584946565
9	41604884	124	1.1749066633762
9	42410924	125	1.1740114553177
9	43213968	126	1.1815973769433
9	44014791	127	1.1708675644106
9	44816490	128	1.1797925773193
9	45611821	129	1.1686148135688
9	46403259	130	1.1737420043307
9	47206170	131	1.191257151789
9	48000285	132	1.1730412705476
9	48799374	133	1.1707609156298
9	49583804	134	1.1800138715756
9	50359515	135	1.1595096454095
9	51134528	136	1.182761319322
9	51903493	137	1.1775048297953
9	52686722	138	1.1661061433437
9	53459666	139	1.1759344679536
9	54231665	140	1.1916213352378
9	55048352	141	1.1697960715052
9	55866474	142	1.1681910167588
9	56686417	143	1.1875422566961
9	57533146	144	1.1819892734881
9	58401980	145	1.1593868435735
9	59274721	146	1.1840108972973
9	60178140	147	1.1779943901281
9	61123452	148	1.1605437902921
9	62083806	149	1.1979841922969
10	3025	6	2415.7863412363
10	5545	7	2415.7863412363
10	10264	8	2415.1665731788
10	17676	9	2414.1698382099
10	29111	10	2413.0087048085
10	44941	11	2411.7893185191
10	70091	12	2410.5508388483
10	113803	13	2409.2837854422
10	182346	14	2408.0122848242
10	267195	15	2406.9544872612
10	360423	16	2406.0016920707
10	454040	17	2405.0534334151
10	559779	18	2404.0965319879
10	672015	19	2403.1454690611
10	784540	20	2402.1887195815
10	895007	21	2401.2318259045
10	1006426	22	2400.2892614424
10	1128735	23	2399.3300404391
10	1263643	24	2398.3881263271
10	1400739	25	2397.4390500817
10	1537549	26	2396.4832018191
10	1672057	27	2395.5320824292
10	1819913	28	2394.5788556813
10	1979960	29	2393.6199045925
10	2139909	30	2392.6653186145
10	2301964	31	2391.7185749843
10	2477147	32	2390.7671941369
10	2662419	33	2389.8148403845
10	2847921	34	2388.872622281
10	3032140	35	2387.9135678723
10	3214827	36	2386.9653033785
10	3412035	37	2386.0201588832
10	3627555	38	2385.0714909295
10	3840742	39	2384.1163829567
10	4053271	40	2383.1700366922
10	4265311	41	2382.2248812721
10	4495212	42	2381.2812469967
10	4736931	43	2380.3366306246
10	4979627	44	2379.3829809553
10	5222712	45	2378.4315058097
10	5463850	46	2377.4852820347
10	5726113	47	2376.5294665841
10	6001441	48	2375.5829423562
10	6271840	49	2374.634710303
10	6539145	50	2373.6861324889
10	6829271	51	2372.7304525143
10	7137576	52	2371.7850538929
10	7445314	53	2370.8293964127
10	7746631	54	2369.8782243837
10	8050767	55	2368.9286712448
10	8354353	56	2367.9801642426
10	8657076	57	2367.0252531266
10	8962449	58	2366.081737192
10	9264427	59	2365.133601739
10	9572847	60	2364.183425701
10	9883209	61	2363.2324838619
10	10188633	62	2362.2797037155
10	10498252	63	2361.3297460271
10	10809116	64	2360.3809452379
10	11116472	65	2359.4272598978
10	11416212	66	2358.4693972926
10	11717703	67	2357.5118592628
10	12023588	68	2356.5695547139
10	12334683	69	2355.6134456845
10	12638786	70	2354.6687994873
10	12941694	71	2353.7160595601
10	13243167	72	2352.7656305964
10	13548139	73	2351.8126790606
10	13854430	74	2350.8611464903
10	14156953	75	2349.9076616418
10	14462317	76	2348.9525063544
10	14767111	77	2347.9963255887
10	15069746	78	2347.0572380552
10	15369309	79	2346.1024631907
10	15671236	80	2345.1509468342
10	15972557	81	2344.2013134053
10	16279588	82	2343.2494912975
10	16584299	83	2342.3856148205
10	16906646	84	2341.559810859
10	17244436	85	2340.7296119597
10	17587648	86	2339.9000317476
10	17940919	87	2339.0699320863
10	18303723	88	2338.2382634855
10	18685258	89	2337.4063103878
10	19071047	90	2336.5677813351
10	19472501	91	2335.7310684697
10	19890926	92	2335.2229674507
10	20323699	93	2335.0015060834
10	20786354	94	2334.779607815
10	21265374	95	2334.556171991
10	21765277	96	2334.3351026815
10	22281312	97	2334.1150324702
10	22822112	98	2333.9539670371
10	23391229	99	2333.8582993901
10	23983566	100	2333.9446118887
10	24560260	101	2334.154424028
10	25170363	102	2334.7114633454
10	25796934	103	2335.4252237894
10	26449646	104	2336.3518121385
10	27118415	105	2337.3842304529
10	27796875	106	2338.4404363566
10	28490975	107	2339.4909341387
10	29215444	108	2340.5417101044
10	29928157	109	2341.5989189894
10	30672900	110	2342.654548255
10	31445445	111	2343.7120709358
10	32217470	112	2344.767224661
10	32992386	113	2345.7866905708
10	33770321	114	2346.8004836175
10	34551659	115	2347.806625493
10	35318285	116	2348.8080827642
10	36092011	117	2349.8187366907
10	36868287	118	2350.8293047346
10	37635091	119	2351.8350743453
10	38411957	120	2352.840171011
10	39198973	121	2353.8439410429
10	40001774	122	2354.8418069128
10	40804424	123	2355.8419603428
10	41604884	124	2356.8524604634
10	42410924	125	2357.8522805495
10	43213968	126	2358.8621717168
10	44014791	127	2359.8637112126
10	44816490	128	2360.8734441185
10	45611821	129	2362.12219425
10	46403259	130	2363.480057064
10	47206170	131	2364.8261265933
10	48000285	132	2366.1660612886
10	48799374	133	2367.4992110746
10	49583804	134	2368.8393488134
10	50359515	135	2370.1819620575
10	51134528	136	2371.5356034449
10	51903493	137	2372.8689500489
10	52686722	138	2374.1952317422
10	53459666	139	2375.5352812088
10	54231665	140	2376.8752953331
10	55048352	141	2378.2213878741
10	55866474	142	2379.5666541874
10	56686417	143	2380.9178795482
10	57533146	144	2382.2525828591
10	58401980	145	2383.5991975832
10	59274721	146	2384.938573501
10	60178140	147	2386.2944896382
10	61123452	148	2387.643913091
10	62083806	149	2389.0030339311
11	3025	6	1578.1166743273
11	5545	7	1578.1166743273
11	10264	8	1578.3442499237
11	17676	9	1578.7102458021
11	29111	10	1579.1366079273
11	44941	11	1579.5843602084
11	70091	12	1580.0391234802
11	113803	13	1580.5043788776
11	182346	14	1580.971267269
11	267195	15	1581.7635582304
11	360423	16	1582.7286084965
11	454040	17	1583.6890638769
11	559779	18	1584.6582731949
11	672015	19	1585.6215689164
11	784540	20	1586.5906243324
11	895007	21	1587.5598258004
11	1006426	22	1588.5145137478
11	1128735	23	1589.486072476
11	1263643	24	1590.4401017083
11	1400739	25	1591.4013851956
11	1537549	26	1592.3695278028
11	1672057	27	1593.332880713
11	1819913	28	1594.298368087
11	1979960	29	1595.2696534302
11	2139909	30	1596.2365175169
11	2301964	31	1597.1954383859
11	2477147	32	1598.1590561168
11	2662419	33	1599.1236592662
11	2847921	34	1600.0779964002
11	3032140	35	1601.0493863923
11	3214827	36	1602.0098476857
11	3412035	37	1602.9671488516
11	3627555	38	1603.9280187953
11	3840742	39	1604.895411591
11	4053271	40	1605.8539299825
11	4265311	41	1606.8112422135
11	4495212	42	1607.7670137342
11	4736931	43	1608.7237799838
11	4979627	44	1609.6896957196
11	5222712	45	1610.6534089614
11	5463850	46	1611.6118032886
11	5726113	47	1612.5799126616
11	6001441	48	1613.5386113068
11	6271840	49	1614.4990397431
11	6539145	50	1615.4598183874
11	6829271	51	1616.4277905421
11	7137576	52	1617.3853491023
11	7445314	53	1618.3532984732
11	7746631	54	1619.3167046998
11	8050767	55	1620.2784712138
11	8354353	56	1621.239178136
11	8657076	57	1622.206371543
11	8962449	58	1623.1620232007
11	9264427	59	1624.1223537941
11	9572847	60	1625.0847512195
11	9883209	61	1626.047924296
11	10188633	62	1627.0129593238
11	10498252	63	1627.9751355909
11	10809116	64	1628.9361400781
11	11116472	65	1629.9020919427
11	11416212	66	1630.8722748021
11	11717703	67	1631.8421289101
11	12023588	68	1632.7965536015
11	12334683	69	1633.76496033
11	12638786	70	1634.721756788
11	12941694	71	1635.6867510797
11	13243167	72	1636.6494046832
11	13548139	73	1637.6146133058
11	13854430	74	1638.5783847114
11	14156953	75	1639.5441335058
11	14462317	76	1640.5115742246
11	14767111	77	1641.4800536111
11	15069746	78	1642.4312199093
11	15369309	79	1643.398275312
11	15671236	80	1644.3620302947
11	15972557	81	1645.3238781318
11	16279588	82	1646.2879427988
11	16584299	83	1647.3405164359
11	16906646	84	1648.3976740371
11	17244436	85	1649.4604578419
11	17587648	86	1650.5224496303
11	17940919	87	1651.5851063961
11	18303723	88	1652.6497716475
11	18685258	89	1653.7148010992
11	19071047	90	1654.7882487969
11	19472501	91	1655.8593714926
11	19890926	92	1657.0648154281
11	20323699	93	1658.3985417224
11	20786354	94	1659.7348992052
11	21265374	95	1661.0805164427
11	21765277	96	1662.4118816126
11	22281312	97	1663.7372298259
11	22822112	98	1665.0821336415
11	23391229	99	1666.4374253089
11	23983566	100	1667.7703954084
11	24560260	101	1669.1012038346
11	25170363	102	1670.3325166442
11	25796934	103	1671.463317927
11	26449646	104	1672.4611823037
11	27118415	105	1673.3321448676
11	27796875	106	1674.1850946527
11	28490975	107	1675.0334347859
11	29215444	108	1675.881999569
11	29928157	109	1676.7357593216
11	30672900	110	1677.5882434361
11	31445445	111	1678.4422565978
11	32217470	112	1679.2943566851
11	32992386	113	1680.1710557509
11	33770321	114	1681.0853197128
11	34551659	115	1681.9926836574
11	35318285	116	1682.8958229087
11	36092011	117	1683.8072559331
11	36868287	118	1684.7186115067
11	37635091	119	1685.6256397339
11	38411957	120	1686.5320610814
11	39198973	121	1687.437286038
11	40001774	122	1688.3371864734
11	40804424	123	1689.239149888
11	41604884	124	1690.1504442068
11	42410924	125	1691.0521070026
11	43213968	126	1691.9628521521
11	44014791	127	1692.8660655553
11	44816490	128	1693.7766679814
11	45611821	129	1694.1412910735
11	46403259	130	1694.3442486795
11	47206170	131	1694.5454435619
11	48000285	132	1694.7457214808
11	48799374	133	1694.9449852705
11	49583804	134	1695.1452935375
11	50359515	135	1695.3459718144
11	51134528	136	1695.5482984511
11	51903493	137	1695.7475916585
11	52686722	138	1695.9458288848
11	53459666	139	1696.1461239578
11	54231665	140	1696.3464137493
11	55048352	141	1696.5134701822
11	55866474	142	1696.6735868957
11	56686417	143	1696.8344128681
11	57533146	144	1696.9932723483
11	58401980	145	1697.1535495529
11	59274721	146	1697.3129651779
11	60178140	147	1697.4743494578
11	61123452	148	1697.6072190553
11	62083806	149	1697.7357330061
12	5545	7	0.8838096124817
12	10264	8	1.1557319935416
12	17676	9	1.2836546819813
12	29111	10	1.3001371949302
12	44941	11	1.3387011307364
12	70091	12	1.3158470270112
12	113803	13	1.3372683756385
12	182346	14	1.3627268797841
12	267195	15	1.3736229836338
12	360423	16	1.3628045862084
12	454040	17	1.3305895887431
12	559779	18	1.3356735896892
12	672015	19	1.3292343006892
12	784540	20	1.3761848984627
12	895007	21	1.3650106078904
12	1006426	22	1.3596617280331
12	1128735	23	1.3549160490481
12	1263643	24	1.3243774628165
12	1400739	25	1.3295322884229
12	1537549	26	1.3849237200259
12	1672057	27	1.382363496917
12	1819913	28	1.3667073556994
12	1979960	29	1.3436273005048
12	2139909	30	1.3220673046707
12	2301964	31	1.3248096202447
12	2477147	32	1.3194804580475
12	2662419	33	1.3242722861954
12	2847921	34	1.3548303449215
12	3032140	35	1.3519489102779
12	3214827	36	1.3501723087015
12	3412035	37	1.3800228132431
12	3627555	38	1.3617954966275
12	3840742	39	1.3727964762524
12	4053271	40	1.365941487712
12	4265311	41	1.3504890641437
12	4495212	42	1.3256055154154
12	4736931	43	1.3395937412151
12	4979627	44	1.3850842547252
12	5222712	45	1.330735209651
12	5463850	46	1.342135020427
12	5726113	47	1.3654892050487
12	6001441	48	1.3240706176826
12	6271840	49	1.3527539737398
12	6539145	50	1.3509357349077
12	6829271	51	1.3855775102768
12	7137576	52	1.3757039946887
12	7445314	53	1.3735061458227
12	7746631	54	1.324326475578
12	8050767	55	1.3684572748219
12	8354353	56	1.3655966903243
12	8657076	57	1.3311225673384
12	8962449	58	1.3425111880335
12	9264427	59	1.3662914634876
12	9572847	60	1.3648347498118
12	9883209	61	1.3930730190596
12	10188633	62	1.3518517285735
12	10498252	63	1.33735203229
12	10809116	64	1.3720177687812
12	11116472	65	1.3701684591397
12	11416212	66	1.3905304038266
12	11717703	67	1.3683709903863
12	12023588	68	1.3423340744918
12	12334683	69	1.3385810339269
12	12638786	70	1.3599665848286
12	12941694	71	1.3468730826654
12	13243167	72	1.3647868090491
12	13548139	73	1.3332612920732
12	13854430	74	1.3763116431919
12	14156953	75	1.3362821218436
12	14462317	76	1.3485989145179
12	14767111	77	1.3431910554919
12	15069746	78	1.331703305491
12	15369309	79	1.3239925552765
12	15671236	80	1.3901831068279
12	15972557	81	1.3785816896126
12	16279588	82	1.3442384562386
12	16584299	83	1.3561830649248
12	16906646	84	1.3761445013537
12	17244436	85	1.3753207497288
12	17587648	86	1.3432236764976
12	17940919	87	1.3461337971749
12	18303723	88	1.3885804926461
12	18685258	89	1.3592417222786
12	19071047	90	1.3702597219355
12	19472501	91	1.3618516162235
12	19890926	92	1.3932919526019
12	20323699	93	1.332756554623
12	20786354	94	1.3869015635566
12	21265374	95	1.3741606089649
12	21765277	96	1.3503777394233
12	22281312	97	1.3697411193696
12	22822112	98	1.3745993798931
12	23391229	99	1.3472070349582
12	23983566	100	1.3584017260986
12	24560260	101	1.3332992878846
12	25170363	102	1.3633051834834
12	25796934	103	1.335229135209
12	26449646	104	1.3479682058799
12	27118415	105	1.3642666598464
12	27796875	106	1.3870146006078
12	28490975	107	1.3451089908416
12	29215444	108	1.3775971114895
12	29928157	109	1.3388917186652
12	30672900	110	1.3832508555696
12	31445445	111	1.352425522386
12	32217470	112	1.3371130475325
12	32992386	113	1.3828433038959
12	33770321	114	1.3331320865134
12	34551659	115	1.3260986983193
12	35318285	116	1.3618876027452
12	36092011	117	1.3900601669954
12	36868287	118	1.3636685704837
12	37635091	119	1.3463951027219
12	38411957	120	1.3176146165803
12	39198973	121	1.365709970364
12	40001774	122	1.3592435506522
12	40804424	123	1.3738862619817
12	41604884	124	1.3506935771197
12	42410924	125	1.3525728863318
12	43213968	126	1.355609838102
12	44014791	127	1.3812898648425
12	44816490	128	1.3366030079849
12	45611821	129	1.3809051936299
12	46403259	130	1.3741948654987
12	47206170	131	1.3633675857342
12	48000285	132	1.3525796772055
12	48799374	133	1.3643057752715
12	49583804	134	1.3260344437658
12	50359515	135	1.3785409741459
12	51134528	136	1.3540102190685
12	51903493	137	1.349054534586
12	52686722	138	1.3485124209063
12	53459666	139	1.3821669389735
12	54231665	140	1.3573862079199
12	55048352	141	1.3701683176837
12	55866474	142	1.3378547064625
12	56686417	143	1.3766206124985
12	57533146	144	1.3509489302728
12	58401980	145	1.3604117191853
12	59274721	146	1.3695087586147
12	60178140	147	1.353033608857
12	61123452	148	1.390000067101
12	62083806	149	1.3622697094254
13	10264	8	0.2719223810599
13	17676	9	0.12792268843973
13	29111	10	0.016482512948913
13	44941	11	0.038563935806189
13	70091	12	-0.022854103725231
13	113803	13	0.021421348627318
13	182346	14	0.025458504145541
13	267195	15	0.010896103849789
13	360423	16	-0.010818397425427
13	454040	17	-0.032214997465359
13	559779	18	0.0050840009461888
13	672015	19	-0.006439289000016
13	784540	20	0.046950597773434
13	895007	21	-0.011174290572249
13	1006426	22	-0.0053488798573278
13	1128735	23	-0.0047456789849907
13	1263643	24	-0.03053858623155
13	1400739	25	0.0051548256063139
13	1537549	26	0.055391431603012
13	1672057	27	-0.0025602231088917
13	1819913	28	-0.015656141217605
13	1979960	29	-0.023080055194602
13	2139909	30	-0.021559995834103
13	2301964	31	0.0027423155740631
13	2477147	32	-0.0053291621972589
13	2662419	33	0.0047918281479349
13	2847921	34	0.030558058726139
13	3032140	35	-0.0028814346436719
13	3214827	36	-0.0017766015763294
13	3412035	37	0.029850504541575
13	3627555	38	-0.018227316615619
13	3840742	39	0.011000979624943
13	4053271	40	-0.0068549885404643
13	4265311	41	-0.015452423568294
13	4495212	42	-0.02488354872831
13	4736931	43	0.013988225799681
13	4979627	44	0.045490513510142
13	5222712	45	-0.054349045074208
13	5463850	46	0.011399810775999
13	5726113	47	0.023354184621726
13	6001441	48	-0.041418587366161
13	6271840	49	0.028683356057209
13	6539145	50	-0.0018182388320553
13	6829271	51	0.034641775369091
13	7137576	52	-0.0098735155880996
13	7445314	53	-0.0021978488659811
13	7746631	54	-0.049179670244749
13	8050767	55	0.04413079924395
13	8354353	56	-0.0028605844976162
13	8657076	57	-0.034474122985866
13	8962449	58	0.011388620695075
13	9264427	59	0.023780275454053
13	9572847	60	-0.0014567136757693
13	9883209	61	0.028238269247786
13	10188633	62	-0.041221290486096
13	10498252	63	-0.014499696283447
13	10809116	64	0.034665736491149
13	11116472	65	-0.0018493096414476
13	11416212	66	0.020361944686903
13	11717703	67	-0.022159413440306
13	12023588	68	-0.026036915894542
13	12334683	69	-0.0037530405648574
13	12638786	70	0.021385550901647
13	12941694	71	-0.013093502163191
13	13243167	72	0.017913726383725
13	13548139	73	-0.031525516975934
13	13854430	74	0.043050351118715
13	14156953	75	-0.040029521348311
13	14462317	76	0.012316792674302
13	14767111	77	-0.0054078590260125
13	15069746	78	-0.011487750000842
13	15369309	79	-0.0077107502145521
13	15671236	80	0.066190551551391
13	15972557	81	-0.011601417215291
13	16279588	82	-0.034343233374022
13	16584299	83	0.011944608686191
13	16906646	84	0.019961436428982
13	17244436	85	-0.00082375162490789
13	17587648	86	-0.032097073231213
13	17940919	87	0.0029101206772368
13	18303723	88	0.042446695471219
13	18685258	89	-0.029338770367505
13	19071047	90	0.011017999656884
13	19472501	91	-0.0084081057119625
13	19890926	92	0.031440336378426
13	20323699	93	-0.060535397978897
13	20786354	94	0.054145008933604
13	21265374	95	-0.012740954591681
13	21765277	96	-0.023782869541609
13	22281312	97	0.019363379946268
13	22822112	98	0.0048582605234961
13	23391229	99	-0.0273923449349
13	23983566	100	0.011194691140362
13	24560260	101	-0.025102438213939
13	25170363	102	0.030005895598762
13	25796934	103	-0.02807604827443
13	26449646	104	0.012739070670904
13	27118415	105	0.016298453966578
13	27796875	106	0.022747940761323
13	28490975	107	-0.04190560976619
13	29215444	108	0.032488120647945
13	29928157	109	-0.038705392824284
13	30672900	110	0.044359136904375
13	31445445	111	-0.030825333183648
13	32217470	112	-0.015312474853464
13	32992386	113	0.045730256363401
13	33770321	114	-0.049711217382484
13	34551659	115	-0.007033388194156
13	35318285	116	0.035788904425909
13	36092011	117	0.028172564250279
13	36868287	118	-0.026391596511763
13	37635091	119	-0.017273467761795
13	38411957	120	-0.028780486141593
13	39198973	121	0.048095353783692
13	40001774	122	-0.006466419711759
13	40804424	123	0.014642711329488
13	41604884	124	-0.023192684862037
13	42410924	125	0.0018793092121778
13	43213968	126	0.003036951770186
13	44014791	127	0.025680026740446
13	44816490	128	-0.044686856857619
13	45611821	129	0.04430218564501
13	46403259	130	-0.0067103281312022
13	47206170	131	-0.010827279764497
13	48000285	132	-0.010787908528687
13	48799374	133	0.011726098066007
13	49583804	134	-0.038271331505727
13	50359515	135	0.052506530380144
13	51134528	136	-0.024530755077408
13	51903493	137	-0.0049556844824814
13	52686722	138	-0.00054211367972767
13	53459666	139	0.033654518067214
13	54231665	140	-0.024780731053639
13	55048352	141	0.012782109763822
13	55866474	142	-0.032313611221203
13	56686417	143	0.038765906036058
13	57533146	144	-0.025671682225701
13	58401980	145	0.0094627889124781
13	59274721	146	0.0090970394293903
13	60178140	147	-0.016475149757676
13	61123452	148	0.036966458243998
13	62083806	149	-0.027730357675649
14	10264	8	1.2416340437654
14	17676	9	1.211693161067
14	29111	10	1.1780861552307
14	44941	11	1.187242335871
14	70091	12	1.1664394563836
14	113803	13	1.1816344512658
14	182346	14	1.1843327303581
14	267195	15	1.1801100813737
14	360423	16	1.1724223586695
14	454040	17	1.1640748142974
14	559779	18	1.1762895475226
14	672015	19	1.1722764244475
14	784540	20	1.1921995914554
14	895007	21	1.1724070855389
14	1006426	22	1.1740695706135
14	1128735	23	1.1740412997659
14	1263643	24	1.164355405794
14	1400739	25	1.1760054375678
14	1537549	26	1.1955419172315
14	1672057	27	1.1760763056692
14	1819913	28	1.1710090283969
14	1979960	29	1.1675670149668
14	2139909	30	1.1671205875704
14	2301964	31	1.1749991796034
14	2477147	32	1.172169309169
14	2662419	33	1.1756267433893
14	2847921	34	1.1855643884275
14	3032140	35	1.1745074597642
14	3214827	36	1.174781594801
14	3412035	37	1.1867429358176
14	3627555	38	1.1699442388164
14	3840742	39	1.1801023058662
14	4053271	40	1.1738718445664
14	4265311	41	1.1703458589485
14	4495212	42	1.1662128264156
14	4736931	43	1.1793600612404
14	4979627	44	1.1922469108117
14	5222712	45	1.1569822318218
14	5463850	46	1.1786552512644
14	5726113	47	1.1837918621192
14	6001441	48	1.160870893336
14	6271840	49	1.1848366994575
14	6539145	50	1.17480492545
14	6829271	51	1.1886537194831
14	7137576	52	1.1733309673657
14	7445314	53	1.1757697827041
14	7746631	54	1.1584037582988
14	8050767	55	1.1908053743883
14	8354353	56	1.1751701964514
14	8657076	57	1.1633719201709
14	8962449	58	1.1786709983991
14	9264427	59	1.1839757948538
14	9572847	60	1.1755953406129
14	9883209	61	1.1869320370304
14	10188633	62	1.1620118080864
14	10498252	63	1.1700615413451
14	10809116	64	1.1878871705314
14	11116472	65	1.1757238911714
14	11416212	66	1.1841512159356
14	11717703	67	1.1689392350093
14	12023588	68	1.1665546247726
14	12334683	69	1.1735839934119
14	12638786	70	1.1828463018767
14	12941694	71	1.170948764667
14	13243167	72	1.1819642216127
14	13548139	73	1.164405809287
14	13854430	74	1.190913529153
14	14156953	75	1.1617914109366
14	14462317	76	1.1792861009837
14	14767111	77	1.1732688285707
14	15069746	78	1.1707726533138
14	15369309	79	1.1716234399212
14	15671236	80	1.1994867193774
14	15972557	81	1.1728903774449
14	16279588	82	1.1639445678703
14	16584299	83	1.179556672336
14	16906646	84	1.1832461867781
14	17244436	85	1.1763127556979
14	17587648	86	1.1646306261571
14	17940919	87	1.1761069301452
14	18303723	88	1.1914371555806
14	18685258	89	1.1661910933562
14	19071047	90	1.1799775054146
14	19472501	91	1.1731694546338
14	19890926	92	1.1880194069484
14	20323699	93	1.1550672377316
14	20786354	94	1.1952481757306
14	21265374	95	1.17230976082
14	21765277	96	1.1676297779956
14	22281312	97	1.1827057147464
14	22822112	98	1.1781600502588
14	23391229	99	1.1663214847828
14	23983566	100	1.1794257159272
14	24560260	101	1.1664712688525
14	25170363	102	1.1858585489045
14	25796934	103	1.1655967632133
14	26449646	104	1.1793906670596
14	27118415	105	1.1814055330051
14	27796875	106	1.1847600496491
14	28490975	107	1.1615282883823
14	29215444	108	1.1874828824391
14	29928157	109	1.1623206771361
14	30672900	110	1.191760234591
14	31445445	111	1.1654224800483
14	32217470	112	1.1697888161845
14	32992386	113	1.1921929477482
14	33770321	114	1.1585577047091
14	34551659	115	1.1719386292292
14	35318285	116	1.187677254004
14	36092011	117	1.1867425649567
14	36868287	118	1.167344189249
14	37635091	119	1.1695706546441
14	38411957	120	1.164633944791
14	39198973	121	1.1919470804787
14	40001774	122	1.1736836414886
14	40804424	123	1.1813641374013
14	41604884	124	1.1678354786146
14	42410924	125	1.1760893032663
14	43213968	126	1.176616928622
14	44014791	127	1.1854255289484
14	44816490	128	1.1603037266085
14	45611821	129	1.1916018084416
14	46403259	130	1.1743085547719
14	47206170	131	1.1724454213112
14	48000285	132	1.1719604828476
14	48799374	133	1.1799042136862
14	49583804	134	1.1619527632939
14	50359515	135	1.1941869849643
14	51134528	136	1.1675419819385
14	51903493	137	1.1736939974744
14	52686722	138	1.1751025930159
14	53459666	139	1.1881300520406
14	54231665	140	1.167604826007
14	55048352	141	1.1805553335992
14	55866474	142	1.1643406674235
14	56686417	143	1.1895103703092
14	57533146	144	1.1670393899819
14	58401980	145	1.1789613100821
14	59274721	146	1.1793048783118
14	60178140	147	1.1701269286923
14	61123452	148	1.1896850921932
14	62083806	149	1.1668453606315
15	44941	11	2415.6610717325
15	70091	12	2415.6610717325
15	113803	13	2414.907528492
15	182346	14	2413.8496822334
15	267195	15	2412.6737091349
15	360423	16	2411.4453065458
15	454040	17	2410.191744384
15	559779	18	2408.928155724
15	672015	19	2407.6562713998
15	784540	20	2406.6840624934
15	895007	21	2405.7323175776
15	1006426	22	2404.7868153334
15	1128735	23	2403.8298705749
15	1263643	24	2402.8795988729
15	1400739	25	2401.9315346235
15	1537549	26	2400.9831759423
15	1672057	27	2400.0352197905
15	1819913	28	2399.080643543
15	1979960	29	2398.1222234779
15	2139909	30	2397.1615057122
15	2301964	31	2396.2121096979
15	2477147	32	2395.2603274017
15	2662419	33	2394.3056352192
15	2847921	34	2393.3587214173
15	3032140	35	2392.409970199
15	3214827	36	2391.4576606288
15	3412035	37	2390.5112406198
15	3627555	38	2389.5629563823
15	3840742	39	2388.605747099
15	4053271	40	2387.6569784119
15	4265311	41	2386.713765863
15	4495212	42	2385.767907348
15	4736931	43	2384.8225353191
15	4979627	44	2383.873375855
15	5222712	45	2382.9235982532
15	5463850	46	2381.972738601
15	5726113	47	2381.0250926221
15	6001441	48	2380.0741586599
15	6271840	49	2379.1288227382
15	6539145	50	2378.185326457
15	6829271	51	2377.223164813
15	7137576	52	2376.2844044993
15	7445314	53	2375.3307441472
15	7746631	54	2374.3754717946
15	8050767	55	2373.4230780392
15	8354353	56	2372.4741653509
15	8657076	57	2371.520751312
15	8962449	58	2370.5694761267
15	9264427	59	2369.6261921547
15	9572847	60	2368.677854091
15	9883209	61	2367.722011202
15	10188633	62	2366.7701892825
15	10498252	63	2365.8247287862
15	10809116	64	2364.8765325079
15	11116472	65	2363.9224416915
15	11416212	66	2362.9691694573
15	11717703	67	2362.0147367613
15	12023588	68	2361.0613483718
15	12334683	69	2360.1131815838
15	12638786	70	2359.1675143448
15	12941694	71	2358.2090409626
15	13243167	72	2357.2497066128
15	13548139	73	2356.3071914925
15	13854430	74	2355.3607008037
15	14156953	75	2354.4093622982
15	14462317	76	2353.4495937316
[...]
110	57533146	144	-1.5189073747266
110	58401980	145	-1.3122898605435
110	59274721	146	-1.1538553206033
110	60178140	147	-1.0001935642269
110	61123452	148	-0.81357169854321
110	62083806	149	-0.57659338774558
111	25796934	103	0.973
111	26449646	104	0.973
111	27118415	105	0.973
111	27796875	106	0.973
111	28490975	107	0.973
111	29215444	108	0.973
111	29928157	109	0.973
111	30672900	110	0.973
111	31445445	111	0.973
111	32217470	112	0.973
111	32992386	113	0.973
111	33770321	114	0.973
111	34551659	115	0.973
111	35318285	116	0.973
111	36092011	117	0.973
111	36868287	118	0.973
111	37635091	119	0.973
111	38411957	120	0.973
111	39198973	121	0.973
111	40001774	122	0.973
111	40804424	123	0.973
111	41604884	124	0.973
111	42410924	125	0.973
111	43213968	126	0.973
111	44014791	127	0.973
111	44816490	128	0.973
111	45611821	129	0.973
111	46403259	130	0.973
111	47206170	131	0.973
111	48000285	132	0.973
111	48799374	133	0.973
111	49583804	134	0.973
111	50359515	135	0.973
111	51134528	136	0.973
111	51903493	137	0.973
111	52686722	138	1.3716623970904
111	53459666	139	2.4021163665477
111	54231665	140	3.3553692666621
111	55048352	141	4.6852266123629
111	55866474	142	5.6071925730516
111	56686417	143	0.973
111	57533146	144	0.973
111	58401980	145	0.973
111	59274721	146	0.973
111	60178140	147	0.973
111	61123452	148	0.973
111	62083806	149	0.973
112	26449646	104	2.3337057999312
112	27118415	105	2.3300688751071
112	27796875	106	2.267975580548
112	28490975	107	2.169812797395
112	29215444	108	1.6816129646526
112	29928157	109	1.0376534019041
112	30672900	110	0.6413881689424
112	31445445	111	0.43100362934929
112	32217470	112	0
112	32992386	113	0
112	33770321	114	0
112	34551659	115	0
112	35318285	116	0
112	36092011	117	0
112	36868287	118	0
112	37635091	119	0
112	38411957	120	0
112	39198973	121	0
112	40001774	122	0
112	40804424	123	0
112	41604884	124	0
112	42410924	125	0
112	43213968	126	0
112	44014791	127	0
112	44816490	128	0
112	45611821	129	0
112	46403259	130	0
112	47206170	131	0
112	48000285	132	0
112	48799374	133	0
112	49583804	134	0
112	50359515	135	0
112	51134528	136	0
112	51903493	137	0
112	52686722	138	0.43637293803622
112	53459666	139	1.4965892129373
112	54231665	140	3.2143845680558
112	55048352	141	4.9543735060366
112	55866474	142	7.0582603856749
112	56686417	143	7.6265488707437
112	57533146	144	6.6857975704287
112	58401980	145	5.9258179019261
112	59274721	146	4.9501011837247
112	60178140	147	4.0350042654485
112	61123452	148	3.2485094340717
112	62083806	149	2.534144950664
113	27118415	105	-0.0036369248240717
113	27796875	106	-0.062093294559094
113	28490975	107	-0.098162783152997
113	29215444	108	-0.4881998327424
113	29928157	109	-0.64395956274848
113	30672900	110	-0.39626523296172
113	31445445	111	-0.21038453959311
113	32217470	112	-0.43100362934929
113	32992386	113	0
113	33770321	114	0
113	34551659	115	0
113	35318285	116	0
113	36092011	117	0
113	36868287	118	0
113	37635091	119	0
113	38411957	120	0
113	39198973	121	0
113	40001774	122	0
113	40804424	123	0
113	41604884	124	0
113	42410924	125	0
113	43213968	126	0
113	44014791	127	0
113	44816490	128	0
113	45611821	129	0
113	46403259	130	0
113	47206170	131	0
113	48000285	132	0
113	48799374	133	0
113	49583804	134	0
113	50359515	135	0
113	51134528	136	0
113	51903493	137	0
113	52686722	138	0.43637293803622
113	53459666	139	1.0602162749011
113	54231665	140	1.7177953551185
113	55048352	141	1.7399889379808
113	55866474	142	2.1038868796383
113	56686417	143	0.56828848506874
113	57533146	144	-0.94075130031493
113	58401980	145	-0.75997966850267
113	59274721	146	-0.97571671820133
113	60178140	147	-0.91509691827624
113	61123452	148	-0.78649483137684
113	62083806	149	-0.71436448340771
114	27118415	105	1.2215288549835
114	27796875	106	1.1865457327608
114	28490975	107	1.1642837193665
114	29215444	108	0.973
114	29928157	109	0.973
114	30672900	110	0.973
114	31445445	111	0.973
114	32217470	112	0.973
114	32992386	113	0.973
114	33770321	114	0.973
114	34551659	115	0.973
114	35318285	116	0.973
114	36092011	117	0.973
114	36868287	118	0.973
114	37635091	119	0.973
114	38411957	120	0.973
114	39198973	121	0.973
114	40001774	122	0.973
114	40804424	123	0.973
114	41604884	124	0.973
114	42410924	125	0.973
114	43213968	126	0.973
114	44014791	127	0.973
114	44816490	128	0.973
114	45611821	129	0.973
114	46403259	130	0.973
114	47206170	131	0.973
114	48000285	132	0.973
114	48799374	133	0.973
114	49583804	134	0.973
114	50359515	135	0.973
114	51134528	136	0.973
114	51903493	137	0.973
114	52686722	138	1.1769498499212
114	53459666	139	1.5649018062987
114	54231665	140	2.5988488143624
114	55048352	141	3.4377868724353
114	55866474	142	5.0617715199997
114	56686417	143	2.5633965506454
114	57533146	144	0.973
114	58401980	145	0.973
114	59274721	146	0.973
114	60178140	147	0.973
114	61123452	148	0.973
114	62083806	149	0.973
115	27796875	106	2415.042139474
115	28490975	107	2415.042139474
115	29215444	108	2413.4594343151
115	29928157	109	2411.737489122
115	30672900	110	2410.2170042306
115	31445445	111	2409.0469091687
115	32217470	112	2408.2410550261
115	32992386	113	2407.7227983152
115	33770321	114	2407.4660306397
115	34551659	115	2407.4660306397
115	35318285	116	2407.4660306397
115	36092011	117	2407.4660306397
115	36868287	118	2407.4660306397
115	37635091	119	2407.4660306397
115	38411957	120	2407.4660306397
115	39198973	121	2407.4660306397
115	40001774	122	2407.4660306397
115	40804424	123	2407.4660306397
115	41604884	124	2407.4660306397
115	42410924	125	2407.4660306397
115	43213968	126	2407.4660306397
115	44014791	127	2407.4660306397
115	44816490	128	2407.4660306397
115	45611821	129	2407.4660306397
115	46403259	130	2407.4660306397
115	47206170	131	2407.4660306397
115	48000285	132	2407.4660306397
115	48799374	133	2407.4660306397
115	49583804	134	2407.4660306397
115	50359515	135	2407.4660306397
115	51134528	136	2407.4660306397
115	51903493	137	2407.4660306397
115	52686722	138	2407.4660306397
115	53459666	139	2407.2673032826
115	54231665	140	2406.9582689458
115	55048352	141	2406.0780883817
115	55866474	142	2404.0536461115
115	56686417	143	2400.7515870609
115	57533146	144	2396.2214136961
115	58401980	145	2391.5821383591
115	59274721	146	2387.2385780651
115	60178140	147	2383.2286466191
115	61123452	148	2379.6920862115
115	62083806	149	2376.6311745112
116	27796875	106	1578.3899413301
116	28490975	107	1578.3899413301
116	29215444	108	1578.9711024044
116	29928157	109	1579.603391692
116	30672900	110	1580.1617058087
116	31445445	111	1580.5913586095
116	32217470	112	1580.887264044
116	32992386	113	1581.0775652034
116	33770321	114	1581.2454352612
116	34551659	115	1581.2454352612
116	35318285	116	1581.2454352612
116	36092011	117	1581.2454352612
116	36868287	118	1581.2454352612
116	37635091	119	1581.2454352612
116	38411957	120	1581.2454352612
116	39198973	121	1581.2454352612
116	40001774	122	1581.2454352612
116	40804424	123	1581.2454352612
116	41604884	124	1581.2454352612
116	42410924	125	1581.2454352612
116	43213968	126	1581.2454352612
116	44014791	127	1581.2454352612
116	44816490	128	1581.2454352612
116	45611821	129	1581.2454352612
116	46403259	130	1581.2454352612
116	47206170	131	1581.2454352612
116	48000285	132	1581.2454352612
116	48799374	133	1581.2454352612
116	49583804	134	1581.2454352612
116	50359515	135	1581.2454352612
116	51134528	136	1581.2454352612
116	51903493	137	1581.2454352612
116	52686722	138	1581.2454352612
116	53459666	139	1581.4467186956
116	54231665	140	1581.7597279046
116	55048352	141	1582.6512295576
116	55866474	142	1584.7017106796
116	56686417	143	1588.046241588
116	57533146	144	1592.6346831061
116	58401980	145	1597.3336298903
116	59274721	146	1601.7330580764
116	60178140	147	1605.794566201
116	61123452	148	1609.3766146787
116	62083806	149	1612.476896544
117	28490975	107	1.833415558755
117	29215444	108	1.7823013805007
117	29928157	109	1.4540518179128
117	30672900	110	1.0717949118634
117	31445445	111	0.69494198008221
117	32217470	112	0.43358236256463
117	32992386	113	1.8538568930492e-05
117	33770321	114	0
117	34551659	115	0
117	35318285	116	0
117	36092011	117	0
117	36868287	118	0
117	37635091	119	0
117	38411957	120	0
117	39198973	121	0
117	40001774	122	0
117	40804424	123	0
117	41604884	124	0
117	42410924	125	0
117	43213968	126	0
117	44014791	127	0
117	44816490	128	0
117	45611821	129	0
117	46403259	130	0
117	47206170	131	0
117	48000285	132	0
117	48799374	133	0
117	49583804	134	0
117	50359515	135	0
117	51134528	136	0
117	51903493	137	0
117	52686722	138	0.44935130839411
117	53459666	139	0.46156902624594
117	54231665	140	1.9560944154081
117	55048352	141	3.64891561342
117	55866474	142	5.5944779748545
117	56686417	143	6.7403223326175
117	57533146	144	6.3690156409945
117	58401980	145	5.9702640239435
117	59274721	146	5.4349109383887
117	60178140	147	4.7454541682856
117	61123452	148	4.0485158775774
117	62083806	149	3.3791761741705
118	29215444	108	-0.051114178254286
118	29928157	109	-0.32824956258791
118	30672900	110	-0.38225690604931
118	31445445	111	-0.37685293178123
118	32217470	112	-0.26135961751758
118	32992386	113	-0.4335638239957
118	33770321	114	-1.8538568930492e-05
118	34551659	115	0
118	35318285	116	0
118	36092011	117	0
118	36868287	118	0
118	37635091	119	0
118	38411957	120	0
118	39198973	121	0
118	40001774	122	0
118	40804424	123	0
118	41604884	124	0
118	42410924	125	0
118	43213968	126	0
118	44014791	127	0
118	44816490	128	0
118	45611821	129	0
118	46403259	130	0
118	47206170	131	0
118	48000285	132	0
118	48799374	133	0
118	49583804	134	0
118	50359515	135	0
118	51134528	136	0
118	51903493	137	0
118	52686722	138	0.44935130839411
118	53459666	139	0.01221771785183
118	54231665	140	1.4945253891622
118	55048352	141	1.6928211980119
118	55866474	142	1.9455623614346
118	56686417	143	1.1458443577629
118	57533146	144	-0.37130669162298
118	58401980	145	-0.398751617051
118	59274721	146	-0.53535308555473
118	60178140	147	-0.68945677010318
118	61123452	148	-0.69693829070816
118	62083806	149	-0.66933970340689
119	29215444	108	1.1745459261957
119	29928157	109	0.973
119	30672900	110	0.973
119	31445445	111	0.973
119	32217470	112	0.973
119	32992386	113	0.973
119	33770321	114	0.973
119	34551659	115	0.973
119	35318285	116	0.973
119	36092011	117	0.973
119	36868287	118	0.973
119	37635091	119	0.973
119	38411957	120	0.973
119	39198973	121	0.973
119	40001774	122	0.973
119	40804424	123	0.973
119	41604884	124	0.973
119	42410924	125	0.973
119	43213968	126	0.973
119	44014791	127	0.973
119	44816490	128	0.973
119	45611821	129	0.973
119	46403259	130	0.973
119	47206170	131	0.973
119	48000285	132	0.973
119	48799374	133	0.973
119	49583804	134	0.973
119	50359515	135	0.973
119	51134528	136	0.973
119	51903493	137	0.973
119	52686722	138	1.1803469889938
119	53459666	139	1.1336342500937
119	54231665	140	1.9096007118583
119	55048352	141	2.7791595757419
119	55866474	142	4.019194675177
119	56686417	143	3.3247717957827
119	57533146	144	0.973
119	58401980	145	0.973
119	59274721	146	0.973
119	60178140	147	0.973
119	61123452	148	0.973
119	62083806	149	0.973
120	29928157	109	2415.5610620598
120	30672900	110	2415.5610620598
120	31445445	111	2414.6873279735
120	32217470	112	2413.7946160191
120	32992386	113	2413.0638789362
120	33770321	114	2412.5248506452
120	34551659	115	2412.1233987578
120	35318285	116	2412.1219936507
120	36092011	117	2412.1219936507
120	36868287	118	2412.1219936507
120	37635091	119	2412.1219936507
120	38411957	120	2412.1219936507
120	39198973	121	2412.1219936507
120	40001774	122	2412.1219936507
120	40804424	123	2412.1219936507
120	41604884	124	2412.1219936507
120	42410924	125	2412.1219936507
120	43213968	126	2412.1219936507
120	44014791	127	2412.1219936507
120	44816490	128	2412.1219936507
120	45611821	129	2412.1219936507
120	46403259	130	2412.1219936507
120	47206170	131	2412.1219936507
120	48000285	132	2412.1219936507
120	48799374	133	2412.1219936507
120	49583804	134	2412.1219936507
120	50359515	135	2412.1219936507
120	51134528	136	2412.1219936507
120	51903493	137	2412.1219936507
120	52686722	138	2412.1219936507
120	53459666	139	2411.9000308872
120	54231665	140	2411.4870468276
120	55048352	141	2410.9902137027
120	55866474	142	2409.4295316309
120	56686417	143	2406.5952408657
120	57533146	144	2402.9425165062
120	58401980	145	2398.8226590524
120	59274721	146	2394.7250404609
120	60178140	147	2390.7388977399
120	61123452	148	2387.0375133292
120	62083806	149	2383.6682764911
121	29928157	109	1578.199395665
121	30672900	110	1578.199395665
121	31445445	111	1578.5202262616
121	32217470	112	1578.8480254319
121	32992386	113	1579.116348275
121	33770321	114	1579.3142766505
121	34551659	115	1579.4616876887
121	35318285	116	1579.4622036368
121	36092011	117	1579.4622036368
121	36868287	118	1579.4622036368
121	37635091	119	1579.4622036368
121	38411957	120	1579.4622036368
121	39198973	121	1579.4622036368
121	40001774	122	1579.4622036368
121	40804424	123	1579.4622036368
121	41604884	124	1579.4622036368
121	42410924	125	1579.4622036368
121	43213968	126	1579.4622036368
121	44014791	127	1579.4622036368
121	44816490	128	1579.4622036368
121	45611821	129	1579.4622036368
121	46403259	130	1579.4622036368
121	47206170	131	1579.4622036368
121	48000285	132	1579.4622036368
121	48799374	133	1579.4622036368
121	49583804	134	1579.4622036368
121	50359515	135	1579.4622036368
121	51134528	136	1579.4622036368
121	51903493	137	1579.4622036368
121	52686722	138	1579.4622036368
121	53459666	139	1579.543707205
121	54231665	140	1579.6953527955
121	55048352	141	1579.8777873265
121	55866474	142	1580.4508616375
121	56686417	143	1582.1274253372
121	57533146	144	1585.8271318944
121	58401980	145	1589.9999799216
121	59274721	146	1594.1503030444
121	60178140	147	1598.1877164682
121	61123452	148	1601.9367089542
121	62083806	149	1605.3492817068
122	30672900	110	0.98106663713006
122	31445445	111	0.87936595011493
122	32217470	112	0.68300396683042
122	32992386	113	0.4694626757436
122	33770321	114	0.3468195055692
122	34551659	115	0
122	35318285	116	0
122	36092011	117	0
122	36868287	118	0
122	37635091	119	0
122	38411957	120	0
122	39198973	121	0
122	40001774	122	0
122	40804424	123	0
122	41604884	124	0
122	42410924	125	0
122	43213968	126	0
122	44014791	127	0
122	44816490	128	0
122	45611821	129	0
122	46403259	130	0
122	47206170	131	0
122	48000285	132	0
122	48799374	133	0
122	49583804	134	0
122	50359515	135	0
122	51134528	136	0
122	51903493	137	0
122	52686722	138	0.4216472656286
122	53459666	139	0.44972684320004
122	54231665	140	0.88801493551009
122	55048352	141	2.3673190478364
122	55866474	142	4.2393400651852
122	56686417	143	5.7232252179542
122	57533146	144	5.9430106001603
122	58401980	145	5.7270900871057
122	59274721	146	5.529888601556
122	60178140	147	5.0880544643348
122	61123452	148	4.5962578326829
122	62083806	149	3.9708871619394
123	31445445	111	-0.10170068701513
123	32217470	112	-0.19636198328451
123	32992386	113	-0.21354129108682
123	33770321	114	-0.1226431701744
123	34551659	115	-0.3468195055692
123	35318285	116	0
123	36092011	117	0
123	36868287	118	0
123	37635091	119	0
123	38411957	120	0
123	39198973	121	0
123	40001774	122	0
123	40804424	123	0
123	41604884	124	0
123	42410924	125	0
123	43213968	126	0
123	44014791	127	0
123	44816490	128	0
123	45611821	129	0
123	46403259	130	0
123	47206170	131	0
123	48000285	132	0
123	48799374	133	0
123	49583804	134	0
123	50359515	135	0
123	51134528	136	0
123	51903493	137	0
123	52686722	138	0.4216472656286
123	53459666	139	0.028079577571438
123	54231665	140	0.43828809231005
123	55048352	141	1.4793041123263
123	55866474	142	1.8720210173488
123	56686417	143	1.483885152769
123	57533146	144	0.21978538220609
123	58401980	145	-0.21592051305458
123	59274721	146	-0.19720148554971
123	60178140	147	-0.44183413722121
123	61123452	148	-0.4917966316519
123	62083806	149	-0.62537067074352
124	31445445	111	1.1309302898506
124	32217470	112	0.973
124	32992386	113	0.973
124	33770321	114	0.973
124	34551659	115	0.973
124	35318285	116	0.973
124	36092011	117	0.973
124	36868287	118	0.973
124	37635091	119	0.973
124	38411957	120	0.973
124	39198973	121	0.973
124	40001774	122	0.973
124	40804424	123	0.973
124	41604884	124	0.973
124	42410924	125	0.973
124	43213968	126	0.973
124	44014791	127	0.973
124	44816490	128	0.973
124	45611821	129	0.973
124	46403259	130	0.973
124	47206170	131	0.973
124	48000285	132	0.973
124	48799374	133	0.973
124	49583804	134	0.973
124	50359515	135	0.973
124	51134528	136	0.973
124	51903493	137	0.973
124	52686722	138	1.1731937155099
124	53459666	139	1.134746607308
124	54231665	140	1.2467012656043
124	55048352	141	2.0694033922717
124	55866474	142	3.2341522817535
124	56686417	143	3.4501250348655
124	57533146	144	1.7308725065443
124	58401980	145	0.973
124	59274721	146	0.973
124	60178140	147	0.973
124	61123452	148	0.973
124	62083806	149	0.973
125	54231665	140	2415.8047789896
125	55048352	141	2415.8047789896
125	55866474	142	2415.1304579849
125	56686417	143	2413.1360991524
125	57533146	144	2409.4805139032
125	58401980	145	2405.5313183271
125	59274721	146	2401.8007201542
125	60178140	147	2397.9944852435
125	61123452	148	2394.2864336834
125	62083806	149	2390.7952278802
126	54231665	140	1578.1099040806
126	55048352	141	1578.1099040806
126	55866474	142	1578.3575112345
126	56686417	143	1579.089829389
126	57533146	144	1580.4321412137
126	58401980	145	1583.2050322974
126	59274721	146	1586.9836142994
126	60178140	147	1590.8388058962
126	61123452	148	1594.5945512857
126	62083806	149	1598.1306617968
127	55048352	141	1.2612088884108
127	55866474	142	2.9601406451838
127	56686417	143	4.6600809646694
127	57533146	144	5.2353354080842
127	58401980	145	5.4017767052544
127	59274721	146	5.4218828293063
127	60178140	147	5.1709062235564
127	61123452	148	4.8800305495157
127	62083806	149	4.3935731232477
128	55866474	142	1.698931756773
128	56686417	143	1.6999403194856
128	57533146	144	0.57525444341485
128	58401980	145	0.1664412971702
128	59274721	146	0.020106124051914
128	60178140	147	-0.25097660574998
128	61123452	148	-0.29087567404066
128	62083806	149	-0.48645742626799
129	55866474	142	2.467200855297
129	56686417	143	3.2533191909452
129	57533146	144	2.1016160281277
129	58401980	145	1.6018203910074
129	59274721	146	1.4125476798002
129	60178140	147	0.973
129	61123452	148	0.973
129	62083806	149	0.973
130	56686417	143	2415.6295936817
130	57533146	144	2415.6295936817
130	58401980	145	2413.6095895078
130	59274721	146	2409.7114493696
130	60178140	147	2405.4008220129
130	61123452	148	2401.6479668956
130	62083806	149	2398.04494837
131	56686417	143	1578.1742312117
131	57533146	144	1578.1742312117
131	58401980	145	1578.9159662016
131	59274721	146	1580.3473429158
131	60178140	147	1583.3372070855
131	61123452	148	1587.1383323055
131	62083806	149	1590.7876937008
132	57533146	144	3.0149447288827
132	58401980	145	4.9672758831757
132	59274721	146	5.3908081853904
132	60178140	147	5.350589855468
132	61123452	148	5.0689310038129
132	62083806	149	4.6792940381775
133	58401980	145	2415.7286850663
133	59274721	146	2415.7286850663
133	60178140	147	2413.9227680186
133	61123452	148	2410.4052884921
133	62083806	149	2405.9070449161
134	58401980	145	1578.1378453718
134	59274721	146	1578.1378453718
134	60178140	147	1578.8009686871
134	61123452	148	1580.092568811
134	62083806	149	1582.8244730243
135	58401980	145	1.9523311542929
135	59274721	146	0.42353230221475
135	60178140	147	-0.040218329922405
135	61123452	148	-0.28165885165508
135	62083806	149	-0.38963696563545
136	58401980	145	3.6981054605008
136	59274721	146	1.9347714971166
136	60178140	147	1.3304019256874
136	61123452	148	0.973
136	62083806	149	0.973
137	59274721	146	2.7613595792997
137	60178140	147	4.6673895636011
137	61123452	148	5.5043736067239
137	62083806	149	5.1151842165641
138	60178140	147	2415.8458281435
138	61123452	148	2415.8458281435
138	62083806	149	2414.4386087025
139	60178140	147	1578.0948310457
139	61123452	148	1578.0948310457
139	62083806	149	1578.6115546795
140	60178140	147	1.9060299843014
140	61123452	148	0.83698404312272
140	62083806	149	-0.38918939015978
141	60178140	147	3.4885281216208
141	61123452	148	2.501241776902
141	62083806	149	0.973
142	61123452	148	2.4236834255065
142	62083806	149	4.3933126153023
143	62083806	149	1.9696291897958
144	62083806	149	3.4151871981657

