version 2
run CCH_SCH_Safety_B_100Bytes_Q_1-0-20181019-02:57:51-20566
attr configname CCH_SCH_Safety_B_100Bytes_Q_1
attr datetime 20181019-02:57:51
attr experiment CCH_SCH_Safety_B_100Bytes_Q_1
attr inifile omnetpp.ini
attr iterationvars $0=1
attr iterationvarsf 1-
attr measurement $0=1
attr network vanets.RSUScenario
attr processid 20566
attr repetition 0
attr replication #0
attr resultdir results
attr runnumber 0
attr seedset 0
param **.debug false
param **.coreDebug false
param *.annotations.draw false
param *.rsu[*].appl.beaconLengthBits 800bit
param *.node[*].appl.beaconLengthBits 800bit
param *.metricsApplication.appl.beaconLengthBits 800bit
param *.node[*].appl.sendBeacons true
param *.rsu[*].appl.sendBeacons false
param *.metricsApplicaiton[*].appl.sendBeacons false
param *.node[*].appl.dataOnSch true
param *.rsu[*].appl.dataOnSch false
param *.metricsApplication[*].appl.dataOnSch false
param *.node[*].appl.sendData true
param *.rsu[*].appl.sendData true
param *.metricsApplication[*].appl.sendData false
param *.node[*].appl.beaconInterval 0.1s
param *.rsu[*].appl.beaconInterval 0.1s
param *.metricsApplication[*].appl.beaconInterval 0.1s
param *.node[*].appl.beaconPriority 3
param *.rsu[*].appl.beaconPriority 3
param *.metricsApplication[*].appl.beaconPriority 3
param *.node[*].appl.dataPriority 2
param *.rsu[*].appl.dataPriority 2
param *.metricsApplication.appl.beaconPriority 2
param *.**.nic.mac1609_4.queueSize 1
param *.**.nic.mac1609_4.useServiceChannel true
param *.manager.launchConfig "xmldoc(\"erlangen.launchd.xml\")"
param **.debug false
param **.coreDebug false
param *.playgroundSizeX 2500m
param *.playgroundSizeY 2500m
param *.playgroundSizeZ 50m
param *.annotations.draw false
param *.obstacles.debug false
param *.obstacles.obstacles "xmldoc(\"config.xml\", \"//AnalogueModel[@type='SimpleObstacleShadowing']/obstacles\")"
param *.world.useTorus false
param *.world.use2D false
param *.manager.updateInterval 1s
param *.manager.host "\"localhost\""
param *.manager.port 9999
param *.manager.autoShutdown true
param *.manager.launchConfig "xmldoc(\"erlangen.launchd.xml\")"
param *.manager.moduleType "\"vanets.CarWithMetrics\""
param *.manager.moduleName "\"node\""
param *.manager.moduleDisplayString "\"\""
param *.manager.margin 25
param *.manager.numVehicles 5
param *.manager.debug true
param *.rsu[0].mobility.x 2000
param *.rsu[0].mobility.y 2000
param *.rsu[0].mobility.z 3
param *.rsu[*].applType "\"TraCIDemoRSU11p\""
param *.rsu[*].appl.headerLength "80 bit"
param *.rsu[*].appl.sendBeacons false
param *.rsu[*].appl.dataOnSch false
param *.rsu[*].appl.beaconInterval 1s
param *.rsu[*].appl.beaconUserPriority 7
param *.rsu[*].appl.dataUserPriority 5
param *.metricsApplication.applType "\"TraCIDemoRSU11p\""
param *.metricsApplication.appl.debug false
param *.metricsApplication.appl.headerLength "80 bit"
param *.metricsApplication.appl.sendBeacons false
param *.metricsApplication.appl.dataOnSch false
param *.metricsApplication.appl.beaconInterval 1s
param *.metricsApplication.appl.beaconUserPriority 7
param *.metricsApplication.appl.dataUserPriority 2
param *.connectionManager.sendDirect true
param *.connectionManager.maxInterfDist 2600m
param *.connectionManager.drawMaxIntfDist false
param *.**.nic.mac1609_4.useServiceChannel false
param *.**.nic.mac1609_4.txPower 100mW
param *.**.nic.mac1609_4.bitrate 6Mbps
param *.**.nic.phy80211p.sensitivity -89dBm
param *.**.nic.mac1609_4.queueSize 1
param *.**.nic.phy80211p.useThermalNoise true
param *.**.nic.phy80211p.thermalNoise -110dBm
param *.**.nic.phy80211p.decider "xmldoc(\"config.xml\", \"/root/Decider[@type='Decider80211p']\")"
param *.**.nic.phy80211p.decider.collectCollisionStats true
param *.**.nic.phy80211p.analogueModels "xmldoc(\"config.xml\")"
param *.**.nic.phy80211p.usePropagationDelay true
param *.**.nic.phy80211p.collectCollisionStatistics true
param *.**.nic.phy80211p.antenna "xmldoc(\"antenna.xml\", \"/root/Antenna[@id='monopole']\")"
param *.node[*].applType "\"TraCIDemo11p\""
param *.node[*].appl.headerLength "80 bit"
param *.node[*].appl.sendBeacons false
param *.node[*].appl.dataOnSch false
param *.node[*].appl.beaconInterval 1s
param *.node[*].veinsmobilityType.debug true
param *.node[*].veinsmobility.x 0
param *.node[*].veinsmobility.y 0
param *.node[*].veinsmobility.z 1.895
param *.node[*0].veinsmobility.accidentCount 1
param *.node[*0].veinsmobility.accidentStart 10s
param *.node[*0].veinsmobility.accidentDuration 30s

vector 0 RSUScenario.node[0].veinsmobility posx ETV
vector 1 RSUScenario.node[0].veinsmobility posy ETV
vector 2 RSUScenario.node[0].veinsmobility speed ETV
vector 3 RSUScenario.node[1].veinsmobility posx ETV
vector 4 RSUScenario.node[1].veinsmobility posy ETV
vector 5 RSUScenario.node[0].veinsmobility acceleration ETV
vector 6 RSUScenario.node[0].veinsmobility co2emission ETV
vector 7 RSUScenario.node[1].veinsmobility speed ETV
vector 8 RSUScenario.node[1].veinsmobility acceleration ETV
vector 9 RSUScenario.node[1].veinsmobility co2emission ETV
vector 10 RSUScenario.node[2].veinsmobility posx ETV
vector 11 RSUScenario.node[2].veinsmobility posy ETV
vector 12 RSUScenario.node[2].veinsmobility speed ETV
vector 13 RSUScenario.node[2].veinsmobility acceleration ETV
vector 14 RSUScenario.node[2].veinsmobility co2emission ETV
vector 15 RSUScenario.node[3].veinsmobility posx ETV
vector 16 RSUScenario.node[3].veinsmobility posy ETV
vector 17 RSUScenario.node[4].veinsmobility posx ETV
vector 18 RSUScenario.node[4].veinsmobility posy ETV
vector 19 RSUScenario.node[3].veinsmobility speed ETV
vector 20 RSUScenario.node[3].veinsmobility acceleration ETV
vector 21 RSUScenario.node[3].veinsmobility co2emission ETV
vector 22 RSUScenario.node[4].veinsmobility speed ETV
vector 23 RSUScenario.node[4].veinsmobility acceleration ETV
vector 24 RSUScenario.node[4].veinsmobility co2emission ETV
vector 25 RSUScenario.node[5].veinsmobility posx ETV
vector 26 RSUScenario.node[5].veinsmobility posy ETV
vector 27 RSUScenario.node[5].veinsmobility speed ETV
vector 28 RSUScenario.node[5].veinsmobility acceleration ETV
vector 29 RSUScenario.node[5].veinsmobility co2emission ETV
vector 30 RSUScenario.node[6].veinsmobility posx ETV
vector 31 RSUScenario.node[6].veinsmobility posy ETV
vector 32 RSUScenario.node[6].veinsmobility speed ETV
vector 33 RSUScenario.node[6].veinsmobility acceleration ETV
vector 34 RSUScenario.node[6].veinsmobility co2emission ETV
vector 35 RSUScenario.node[7].veinsmobility posx ETV
vector 36 RSUScenario.node[7].veinsmobility posy ETV
vector 37 RSUScenario.node[7].veinsmobility speed ETV
vector 38 RSUScenario.node[7].veinsmobility acceleration ETV
vector 39 RSUScenario.node[7].veinsmobility co2emission ETV
vector 40 RSUScenario.node[8].veinsmobility posx ETV
vector 41 RSUScenario.node[8].veinsmobility posy ETV
vector 42 RSUScenario.node[8].veinsmobility speed ETV
vector 43 RSUScenario.node[8].veinsmobility acceleration ETV
vector 44 RSUScenario.node[8].veinsmobility co2emission ETV
vector 45 RSUScenario.node[9].veinsmobility posx ETV
vector 46 RSUScenario.node[9].veinsmobility posy ETV
vector 47 RSUScenario.node[9].veinsmobility speed ETV
vector 48 RSUScenario.node[9].veinsmobility acceleration ETV
vector 49 RSUScenario.node[9].veinsmobility co2emission ETV
vector 50 RSUScenario.node[10].veinsmobility posx ETV
vector 51 RSUScenario.node[10].veinsmobility posy ETV
vector 52 RSUScenario.node[10].veinsmobility speed ETV
vector 53 RSUScenario.node[10].veinsmobility acceleration ETV
vector 54 RSUScenario.node[10].veinsmobility co2emission ETV
vector 55 RSUScenario.node[11].veinsmobility posx ETV
vector 56 RSUScenario.node[11].veinsmobility posy ETV
vector 57 RSUScenario.node[11].veinsmobility speed ETV
vector 58 RSUScenario.node[11].veinsmobility acceleration ETV
vector 59 RSUScenario.node[11].veinsmobility co2emission ETV
vector 60 RSUScenario.node[12].veinsmobility posx ETV
vector 61 RSUScenario.node[12].veinsmobility posy ETV
vector 62 RSUScenario.node[12].veinsmobility speed ETV
vector 63 RSUScenario.node[12].veinsmobility acceleration ETV
vector 64 RSUScenario.node[12].veinsmobility co2emission ETV
vector 65 RSUScenario.node[13].veinsmobility posx ETV
vector 66 RSUScenario.node[13].veinsmobility posy ETV
vector 67 RSUScenario.node[13].veinsmobility speed ETV
vector 68 RSUScenario.node[13].veinsmobility acceleration ETV
vector 69 RSUScenario.node[13].veinsmobility co2emission ETV
vector 70 RSUScenario.node[14].veinsmobility posx ETV
vector 71 RSUScenario.node[14].veinsmobility posy ETV
vector 72 RSUScenario.node[14].veinsmobility speed ETV
vector 73 RSUScenario.node[15].veinsmobility posx ETV
vector 74 RSUScenario.node[15].veinsmobility posy ETV
vector 75 RSUScenario.node[14].veinsmobility acceleration ETV
vector 76 RSUScenario.node[14].veinsmobility co2emission ETV
vector 77 RSUScenario.node[15].veinsmobility speed ETV
vector 78 RSUScenario.node[16].veinsmobility posx ETV
vector 79 RSUScenario.node[16].veinsmobility posy ETV
vector 80 RSUScenario.node[15].veinsmobility acceleration ETV
vector 81 RSUScenario.node[15].veinsmobility co2emission ETV
vector 82 RSUScenario.node[16].veinsmobility speed ETV
vector 83 RSUScenario.node[17].veinsmobility posx ETV
vector 84 RSUScenario.node[17].veinsmobility posy ETV
vector 85 RSUScenario.node[16].veinsmobility acceleration ETV
vector 86 RSUScenario.node[16].veinsmobility co2emission ETV
vector 87 RSUScenario.node[17].veinsmobility speed ETV
vector 88 RSUScenario.node[18].veinsmobility posx ETV
vector 89 RSUScenario.node[18].veinsmobility posy ETV
vector 90 RSUScenario.node[17].veinsmobility acceleration ETV
vector 91 RSUScenario.node[17].veinsmobility co2emission ETV
vector 92 RSUScenario.node[18].veinsmobility speed ETV
vector 93 RSUScenario.node[19].veinsmobility posx ETV
vector 94 RSUScenario.node[19].veinsmobility posy ETV
vector 95 RSUScenario.node[18].veinsmobility acceleration ETV
vector 96 RSUScenario.node[18].veinsmobility co2emission ETV
vector 97 RSUScenario.node[19].veinsmobility speed ETV
vector 98 RSUScenario.node[20].veinsmobility posx ETV
vector 99 RSUScenario.node[20].veinsmobility posy ETV
vector 100 RSUScenario.node[19].veinsmobility acceleration ETV
vector 101 RSUScenario.node[19].veinsmobility co2emission ETV
vector 102 RSUScenario.node[20].veinsmobility speed ETV
vector 103 RSUScenario.node[20].veinsmobility acceleration ETV
vector 104 RSUScenario.node[20].veinsmobility co2emission ETV
vector 105 RSUScenario.node[21].veinsmobility posx ETV
vector 106 RSUScenario.node[21].veinsmobility posy ETV
vector 107 RSUScenario.node[21].veinsmobility speed ETV
vector 108 RSUScenario.node[22].veinsmobility posx ETV
vector 109 RSUScenario.node[22].veinsmobility posy ETV
vector 110 RSUScenario.node[21].veinsmobility acceleration ETV
vector 111 RSUScenario.node[21].veinsmobility co2emission ETV
vector 112 RSUScenario.node[22].veinsmobility speed ETV
vector 113 RSUScenario.node[22].veinsmobility acceleration ETV
vector 114 RSUScenario.node[22].veinsmobility co2emission ETV
vector 115 RSUScenario.node[23].veinsmobility posx ETV
vector 116 RSUScenario.node[23].veinsmobility posy ETV
vector 117 RSUScenario.node[23].veinsmobility speed ETV
vector 118 RSUScenario.node[23].veinsmobility acceleration ETV
vector 119 RSUScenario.node[23].veinsmobility co2emission ETV
vector 120 RSUScenario.node[24].veinsmobility posx ETV
vector 121 RSUScenario.node[24].veinsmobility posy ETV
vector 122 RSUScenario.node[24].veinsmobility speed ETV
vector 123 RSUScenario.node[24].veinsmobility acceleration ETV
vector 124 RSUScenario.node[24].veinsmobility co2emission ETV
vector 125 RSUScenario.node[25].veinsmobility posx ETV
vector 126 RSUScenario.node[25].veinsmobility posy ETV
vector 127 RSUScenario.node[25].veinsmobility speed ETV
vector 128 RSUScenario.node[25].veinsmobility acceleration ETV
vector 129 RSUScenario.node[25].veinsmobility co2emission ETV
vector 130 RSUScenario.node[26].veinsmobility posx ETV
vector 131 RSUScenario.node[26].veinsmobility posy ETV
vector 132 RSUScenario.node[26].veinsmobility speed ETV
vector 133 RSUScenario.node[27].veinsmobility posx ETV
vector 134 RSUScenario.node[27].veinsmobility posy ETV
vector 135 RSUScenario.node[26].veinsmobility acceleration ETV
vector 136 RSUScenario.node[26].veinsmobility co2emission ETV
vector 137 RSUScenario.node[27].veinsmobility speed ETV
vector 138 RSUScenario.node[28].veinsmobility posx ETV
vector 139 RSUScenario.node[28].veinsmobility posy ETV
vector 140 RSUScenario.node[27].veinsmobility acceleration ETV
vector 141 RSUScenario.node[27].veinsmobility co2emission ETV
vector 142 RSUScenario.node[28].veinsmobility speed ETV
vector 143 RSUScenario.node[28].veinsmobility acceleration ETV
vector 144 RSUScenario.node[28].veinsmobility co2emission ETV
vector 145 RSUScenario.node[29].veinsmobility posx ETV
vector 146 RSUScenario.node[29].veinsmobility posy ETV
vector 147 RSUScenario.node[29].veinsmobility speed ETV
vector 148 RSUScenario.node[30].veinsmobility posx ETV
vector 149 RSUScenario.node[30].veinsmobility posy ETV
vector 150 RSUScenario.node[29].veinsmobility acceleration ETV
vector 151 RSUScenario.node[29].veinsmobility co2emission ETV
vector 152 RSUScenario.node[30].veinsmobility speed ETV
vector 153 RSUScenario.node[31].veinsmobility posx ETV
vector 154 RSUScenario.node[31].veinsmobility posy ETV
vector 155 RSUScenario.node[30].veinsmobility acceleration ETV
vector 156 RSUScenario.node[30].veinsmobility co2emission ETV
vector 157 RSUScenario.node[31].veinsmobility speed ETV
vector 158 RSUScenario.node[32].veinsmobility posx ETV
vector 159 RSUScenario.node[32].veinsmobility posy ETV
vector 160 RSUScenario.node[31].veinsmobility acceleration ETV
vector 161 RSUScenario.node[31].veinsmobility co2emission ETV
vector 162 RSUScenario.node[32].veinsmobility speed ETV
vector 163 RSUScenario.node[33].veinsmobility posx ETV
vector 164 RSUScenario.node[33].veinsmobility posy ETV
vector 165 RSUScenario.node[32].veinsmobility acceleration ETV
vector 166 RSUScenario.node[32].veinsmobility co2emission ETV
vector 167 RSUScenario.node[33].veinsmobility speed ETV
vector 168 RSUScenario.node[33].veinsmobility acceleration ETV
vector 169 RSUScenario.node[33].veinsmobility co2emission ETV
vector 170 RSUScenario.node[34].veinsmobility posx ETV
vector 171 RSUScenario.node[34].veinsmobility posy ETV
vector 172 RSUScenario.node[34].veinsmobility speed ETV
vector 173 RSUScenario.node[34].veinsmobility acceleration ETV
vector 174 RSUScenario.node[34].veinsmobility co2emission ETV
vector 175 RSUScenario.node[35].veinsmobility posx ETV
vector 176 RSUScenario.node[35].veinsmobility posy ETV
vector 177 RSUScenario.node[35].veinsmobility speed ETV
vector 178 RSUScenario.node[35].veinsmobility acceleration ETV
vector 179 RSUScenario.node[35].veinsmobility co2emission ETV
vector 180 RSUScenario.node[36].veinsmobility posx ETV
vector 181 RSUScenario.node[36].veinsmobility posy ETV
vector 182 RSUScenario.node[36].veinsmobility speed ETV
vector 183 RSUScenario.node[36].veinsmobility acceleration ETV
vector 184 RSUScenario.node[36].veinsmobility co2emission ETV
vector 185 RSUScenario.node[37].veinsmobility posx ETV
vector 186 RSUScenario.node[37].veinsmobility posy ETV
vector 187 RSUScenario.node[37].veinsmobility speed ETV
vector 188 RSUScenario.node[37].veinsmobility acceleration ETV
vector 189 RSUScenario.node[37].veinsmobility co2emission ETV
vector 190 RSUScenario.node[38].veinsmobility posx ETV
vector 191 RSUScenario.node[38].veinsmobility posy ETV
9	1757	5	1.1565087663652
9	3025	6	1.1883142423226
9	5545	7	1.1804283709916
9	10264	8	1.1786443373533
9	17676	9	1.1723574585004
9	29111	10	1.159337466769
9	44941	11	1.1988617963627
9	70091	12	1.1654425789418
9	113803	13	1.1835421226748
9	182346	14	1.1797119907796
9	267195	15	1.1558352166949
9	360425	16	1.1932956189315
9	454040	17	1.1749293615559
9	559775	18	1.1718711670424
9	672011	19	1.1663129424575
9	784532	20	1.1719650452881
9	894999	21	1.1968303886412
9	1006426	22	1.1527731980618
9	1128739	23	1.1898823679787
9	1263703	24	1.1739700789996
9	1399448	25	1.178665082705
9	1534902	26	1.1709190579618
9	1671668	27	1.1737067468565
9	1818627	28	1.1811337488505
9	1981147	29	1.1831299908486
9	2142582	30	1.1694739183869
9	2301622	31	1.1634196505029
9	2477994	32	1.1801277088627
9	2665391	33	1.174256671581
9	2851294	34	1.1847195938334
9	3037823	35	1.1653758239904
9	3224833	36	1.1737388412296
9	3428229	37	1.1810216595161
9	3647221	38	1.1754990819841
9	3863400	39	1.1686021256832
9	4074669	40	1.172642713071
9	4290041	41	1.1927510346786
9	4523064	42	1.1639697994093
9	4767745	43	1.184398454652
9	5012415	44	1.1709349713044
9	5254273	45	1.183707365748
9	5493869	46	1.1566312940287
9	5752088	47	1.1793231041065
9	6024997	48	1.1738182213159
9	6295205	49	1.1764237485128
9	6565001	50	1.1732384293491
9	6856567	51	1.1757252969726
9	7157737	52	1.176745055667
9	7457660	53	1.1892826702752
9	7761350	54	1.1569270485317
9	8072844	55	1.1784158578668
9	8379957	56	1.1793801218004
9	8681997	57	1.1691822581691
9	8987334	58	1.1714015156286
9	9290561	59	1.1763170927998
9	9592266	60	1.195253688693
9	9898191	61	1.1778385154062
9	10204181	62	1.1746269583492
9	10511018	63	1.1775852932818
9	10821120	64	1.1684861314724
9	11121593	65	1.1622842464938
9	11426185	66	1.1869148662197
9	11732169	67	1.1780141200782
9	12045441	68	1.1739463376914
9	12354227	69	1.1799387889756
9	12657412	70	1.174308261326
9	12962990	71	1.1706466285417
9	13265380	72	1.1899418574671
9	13569356	73	1.1528261012766
9	13874560	74	1.1933382512864
9	14179473	75	1.1685361803841
9	14486016	76	1.1897690505326
9	14786028	77	1.1732235567127
9	15084772	78	1.1708875074493
9	15386357	79	1.1607809542959
9	15685619	80	1.1830891247408
9	15984065	81	1.179961513977
9	16280235	82	1.1794311117641
9	16575014	83	1.1753629155317
9	16898349	84	1.1595807571001
9	17229815	85	1.1841339644068
9	17569008	86	1.1714298116089
9	17922152	87	1.1820691850193
9	18281789	88	1.1622096167392
9	18650567	89	1.1830770917124
9	19038057	90	1.1675761108861
9	19441840	91	1.1821685151623
9	19869372	92	1.1830920804058
9	20306342	93	1.1726351904255
9	20768810	94	1.1660489767683
9	21259352	95	1.1786896136945
9	21762959	96	1.1819826699882
9	22285593	97	1.181313879228
9	22822020	98	1.1661133874944
9	23391687	99	1.1657959503919
9	23975219	100	1.1972330817381
9	24552444	101	1.1617118849273
9	25165502	102	1.1899760210706
9	25782599	103	1.1789942950214
9	26448973	104	1.159900629938
9	27131862	105	1.1845460516616
9	27817532	106	1.1686051064453
9	28523677	107	1.1855947900627
9	29255782	108	1.1606228530551
9	29983486	109	1.1762165087973
9	30718103	110	1.1721659819799
9	31486870	111	1.1783464625913
9	32249999	112	1.1713515264246
9	33015920	113	1.1748324490874
9	33791795	114	1.1727906995553
9	34582282	115	1.1960639992113
9	35358767	116	1.1634655219982
9	36127384	117	1.171265737717
9	36891078	118	1.1764894914374
9	37662529	119	1.1738522171282
9	38427628	120	1.1756687861452
9	39216605	121	1.1769951632077
9	40009732	122	1.1798257391663
9	40809604	123	1.1776584946565
9	41606991	124	1.1749066633762
9	42398755	125	1.1740114553177
9	43201307	126	1.1815973769433
9	43991722	127	1.1708675644106
9	44788754	128	1.1797925773193
9	45586315	129	1.1686148135688
9	46387000	130	1.1737420043307
9	47181136	131	1.191257151789
9	47991624	132	1.1730412705476
9	48799166	133	1.1707609156298
9	49578148	134	1.1800138715756
9	50359024	135	1.1595096454095
9	51142453	136	1.182761319322
9	51918607	137	1.1775048297953
9	52700267	138	1.1661061433437
9	53469690	139	1.1759344679536
9	54248004	140	1.1916213352378
9	55066819	141	1.1697960715052
9	55900087	142	1.1681910167588
9	56732434	143	1.1875422566961
9	57595441	144	1.1819892734881
9	58468542	145	1.1593868435735
9	59366511	146	1.1840108972973
9	60289451	147	1.1779943901281
9	61230584	148	1.1605437902921
9	62193205	149	1.1979841922969
9	63145664	150	1.1599708909844
9	64149657	151	1.1678648447281
9	65168822	152	1.1762660922018
9	66213637	153	1.1826170866949
9	67285616	154	1.1698400772643
9	68396726	155	1.1768040391124
9	69540645	156	1.1881199072554
9	70702908	157	1.1571632652907
9	71918890	158	1.1948236262516
9	73161677	159	1.1747911393209
9	74441529	160	1.1584335215824
9	75710189	161	1.1984919918663
9	77006633	162	1.1649982426846
9	78346591	163	1.1813036237372
9	79697438	164	1.1629459308854
9	81070627	165	1.1747731204431
9	82476743	166	1.1845195822789
9	83880595	167	1.1675666759444
9	85272179	168	1.1918139646262
9	86673700	169	1.1660044849921
9	88074364	170	1.1889915313046
9	89511974	171	1.1772475
9	90988115	172	1.1772475
9	92478627	173	1.1550070985462
9	93946129	174	1.1908647327901
9	95423570	175	1.1571288651327
9	96890142	176	1.194923064473
9	98382092	177	1.1701330556213
9	99862447	178	1.172079400132
9	101354113	179	1.1779105978086
9	102809281	180	1.1834596634963
9	104267844	181	1.1625030933782
9	105725084	182	1.1760895048586
9	107157445	183	1.1704363051145
9	108586075	184	1.1829085658551
9	110027644	185	1.1768675307145
9	111477743	186	1.1821829836762
9	112939715	187	1.1653586102727
9	114396358	188	1.1795418336912
9	115845588	189	1.1699260012806
9	117297455	190	1.1874040888406
9	118713892	191	1.1717023704146
9	120132619	192	1.1802374369241
9	121549449	193	1.1756549026101
9	122955511	194	1.1638845415803
9	124358890	195	1.1947419141736
9	125760453	196	1.1631210996284
9	127129616	197	1.1821337991272
9	128552406	198	1.1774474216058
9	129987348	199	1.1658425862303
9	131426794	200	1.1895290634857
8	1757	5	-0.055325754510704
8	3025	6	0.037422756803507
8	5545	7	0.011606140049278
8	10264	8	0.0054065723897008
8	17676	9	-0.011852665047627
8	29111	10	-0.04606548043537
8	44941	11	0.064830264487278
8	70091	12	-0.031253886877999
8	113803	13	0.02071267909034
8	182346	14	0.007956129039586
8	267195	15	-0.057563842338924
8	360425	16	0.050026305058661
8	454040	17	-0.0046349134774777
8	559775	18	-0.012190245987666
8	672011	19	-0.025795432577272
8	784532	20	-0.0071768068139337
8	894999	21	0.058940054764713
8	1006426	22	-0.066396190862482
8	1128739	23	0.042385616591976
8	1263703	24	-0.0053046701779953
8	1399448	25	0.0078356364004626
8	1534902	26	-0.013803459118612
8	1671668	27	-0.004574207204213
8	1818627	28	0.015757929892667
8	1981147	29	0.018788244859833
8	2142582	30	-0.01963780009343
8	2301622	31	-0.033896481844648
8	2477994	32	0.015735846763063
8	2665391	33	-0.0020863750736073
8	2851294	34	0.025877754071391
8	3037823	35	-0.029137440481766
8	3224833	36	-0.0027889062605229
8	3428229	37	0.017042812816928
8	3647221	38	8.5547960932519e-05
8	3863400	39	-0.018554469053116
8	4074669	40	-0.0052152423207492
8	4290041	41	0.048440848881405
8	4523064	42	-0.034112741866718
8	4767745	43	0.024808628352023
8	5012415	44	-0.014094325904605
8	5254273	45	0.021500273028829
8	5493869	46	-0.054348885508565
8	5752088	47	0.014547306701489
8	6024997	48	-0.0022240866059697
8	6295205	49	0.0050931874526821
8	6565001	50	-0.0041662793309014
8	6856567	51	0.0030924003092676
8	7157737	52	0.0054157230382164
8	7457660	53	0.037471103310559
8	7761350	54	-0.05400578407312
8	8072844	55	0.011396759315782
8	8379957	56	0.012398525044167
8	8681997	57	-0.01665796520279
8	8987334	58	-0.0085142276333903
8	9290561	59	0.0059480038665545
8	9592266	60	0.054483620479004
8	9898191	61	0.0020172481729082
8	10204181	62	-0.0066508929982472
8	10511018	63	0.001951930672577
8	10821120	64	-0.022438567102654
8	11121593	65	-0.036876427168156
8	11426185	66	0.034243850596896
8	11732169	67	0.006099342410582
8	12045441	68	-0.0054875134082977
8	12354227	69	0.011081018585375
8	12657412	70	-0.0052306322969444
8	12962990	71	-0.014388387644431
8	13265380	72	0.03814360542391
8	13569356	73	-0.066343453428191
8	13874560	74	0.051086359566802
8	14179473	75	-0.021115326979068
8	14486016	76	0.037442009003522
8	14786028	77	-0.010539490710168
8	15084772	78	-0.015474825825853
8	15386357	79	-0.041365911375679
8	15685619	80	0.02448785597355
8	15984065	81	0.012799395109242
8	16280235	82	0.0096706217057847
8	16575014	83	-0.0023264090446498
8	16898349	84	-0.045081437031816
8	17229815	85	0.027305449233002
8	17569008	86	-0.010325324482336
8	17922152	87	0.019449885827877
8	18281789	88	-0.036779375093627
8	18650567	89	0.024571395026417
8	19038057	90	-0.020479592106616
8	19441840	91	0.02158468839803
8	19869372	92	0.0209562325876
8	20306342	93	-0.009448244689136
8	20768810	94	-0.026181708348708
8	21259352	95	0.011383744745722
8	21762959	96	0.018514836022708
8	22285593	97	0.014215483178204
8	22822020	98	-0.028078321467749
8	23391687	99	-0.025690430274052
8	23975219	100	0.060873670073407
8	24552444	101	-0.040942046422667
8	25165502	102	0.039371038211458
8	25782599	103	0.0055445116595365
8	26448973	104	-0.046373792687922
8	27131862	105	0.025575162467754
8	27817532	106	-0.020162085339608
8	28523677	107	0.027522474136074
8	29255782	108	-0.042948186358747
8	29983486	109	0.0049229908876844
8	30718103	110	-0.0066853626695875
8	31486870	111	0.010873562488187
8	32249999	112	-0.009437441444283
8	33015920	113	0.0012337465078518
8	33791795	114	-0.0044668074567906
8	34582282	115	0.057145283337579
8	35358767	116	-0.036245275243548
8	36127384	117	-0.01070720521966
8	36891078	118	0.0047671268273715
8	37662529	119	-0.0029505811754562
8	38427628	120	0.0023244945461758
8	39216605	121	0.0055658659807198
8	40009732	122	0.012323691820105
8	40809604	123	0.004951388206488
8	41606991	124	-0.0029841432115063
8	42398755	125	-0.0049900989850153
8	43201307	126	0.015699424919957
8	43991722	127	-0.014742964865743
8	44788754	128	0.010845492975528
8	45586315	129	-0.020356637525967
8	46387000	130	-0.0039815094270226
8	47181136	131	0.042394487730538
8	47991624	132	-0.010670738249448
8	48799166	133	-0.015451776125701
8	49578148	134	0.011051167918292
8	50359024	135	-0.045789984594901
8	51142453	136	0.023098942021736
8	51918607	137	0.0059934063756373
8	52700267	138	-0.025597577817583
8	53469690	139	0.0044141849826296
8	54248004	140	0.044918446381214
8	55066819	141	-0.018359521103169
8	55900087	142	-0.020515834411425
8	56732434	143	0.033546213784979
8	57595441	144	0.014471559018906
8	58468542	145	-0.047822941560298
8	59366511	146	0.024355557139238
8	60289451	147	0.0052470334048849
8	61230584	148	-0.042680098801308
8	62193205	149	0.062096495805438
8	63145664	150	-0.046326661605336
8	64149657	151	-0.019286292081233
8	65168822	152	0.0061101509749681
8	66213637	153	0.022195505686492
8	67285616	154	-0.014976031654644
8	68396726	155	0.0057586759632815
8	69540645	156	0.034639524819795
8	70702908	157	-0.052950100006355
8	71918890	158	0.05455218226416
8	73161677	159	-0.0050521397982568
8	74441529	160	-0.049022322685536
8	75710189	161	0.06373394469847
8	77006633	162	-0.032456449601644
8	78346591	163	0.015057840387777
8	79697438	164	-0.036155049779659
8	81070627	165	0.0005507548080963
8	82476743	166	0.026342979156956
8	83880595	167	-0.02238908452758
8	85272179	168	0.044561714231451
8	86673700	169	-0.029215942825734
8	88074364	170	0.035085902652807
8	89511974	171	0
8	90988115	172	0
8	92478627	173	-0.060280868848268
8	93946129	174	0.043631067900505
8	95423570	175	-0.052640336297271
8	96890142	176	0.055386830596641
8	98382092	177	-0.017117896964515
8	99862447	178	-0.0097833836722809
8	101354113	179	0.0070674739254173
8	102809281	180	0.020659168140911
8	104267844	181	-0.038006684076713
8	105725084	182	0.0035822686267137
8	107157445	183	-0.012179554178147
8	108586075	184	0.022880084385785
8	110027644	185	0.0037669112498406
8	111477743	186	0.017242066339046
8	112939715	187	-0.029850986757083
8	114396358	188	0.012040970387817
8	115845588	189	-0.01528983691565
8	117297455	190	0.033031509956345
8	118713892	191	-0.01267008481793
8	120132619	192	0.011548189698563
8	121549449	193	-0.0020173039552498
8	122955511	194	-0.033538563164055
8	124358890	195	0.052307849950416
8	125760453	196	-0.037706782895839
8	127129616	197	0.017791364565104
8	128552406	198	0.0031166899942845
8	129987348	199	-0.028385523295987
8	131426794	200	0.037978736476766
7	933	4	1.3815341939982
7	1757	5	1.3262084394874
7	3025	6	1.363631196291
7	5545	7	1.3752373363402
7	10264	8	1.3806439087299
7	17676	9	1.3687912436823
7	29111	10	1.3227257632469
7	44941	11	1.3875560277342
7	70091	12	1.3563021408562
7	113803	13	1.3770148199466
7	182346	14	1.3849709489861
7	267195	15	1.3274071066472
7	360425	16	1.3774334117059
7	454040	17	1.3727984982284
7	559775	18	1.3606082522407
7	672011	19	1.3348128196635
7	784532	20	1.3276360128495
7	894999	21	1.3865760676142
7	1006426	22	1.3201798767518
7	1128739	23	1.3625654933437
7	1263703	24	1.3572608231657
7	1399448	25	1.3650964595662
7	1534902	26	1.3512930004476
7	1671668	27	1.3467187932434
7	1818627	28	1.362476723136
7	1981147	29	1.3812649679959
7	2142582	30	1.3616271679024
7	2301622	31	1.3277306860578
7	2477994	32	1.3434665328209
7	2665391	33	1.3413801577473
7	2851294	34	1.3672579118186
7	3037823	35	1.3381204713369
7	3224833	36	1.3353315650764
7	3428229	37	1.3523743778933
7	3647221	38	1.3524599258542
7	3863400	39	1.3339054568011
7	4074669	40	1.3286902144804
7	4290041	41	1.3771310633618
7	4523064	42	1.343018321495
7	4767745	43	1.3678269498471
7	5012415	44	1.3537326239425
7	5254273	45	1.3752328969713
7	5493869	46	1.3208840114627
7	5752088	47	1.3354313181642
7	6024997	48	1.3332072315582
7	6295205	49	1.3383004190109
7	6565001	50	1.33413413968
7	6856567	51	1.3372265399893
7	7157737	52	1.3426422630275
7	7457660	53	1.3801133663381
7	7761350	54	1.3261075822649
7	8072844	55	1.3375043415807
7	8379957	56	1.3499028666249
7	8681997	57	1.3332449014221
7	8987334	58	1.3247306737887
7	9290561	59	1.3306786776553
7	9592266	60	1.3851622981343
7	9898191	61	1.3871795463072
7	10204181	62	1.3805286533089
7	10511018	63	1.3824805839815
7	10821120	64	1.3600420168789
7	11121593	65	1.3231655897107
7	11426185	66	1.3574094403076
7	11732169	67	1.3635087827182
7	12045441	68	1.3580212693099
7	12354227	69	1.3691022878953
7	12657412	70	1.3638716555983
7	12962990	71	1.3494832679539
7	13265380	72	1.3876268733778
7	13569356	73	1.3212834199496
7	13874560	74	1.3723697795164
7	14179473	75	1.3512544525373
7	14486016	76	1.3886964615409
7	14786028	77	1.3781569708307
7	15084772	78	1.3626821450048
7	15386357	79	1.3213162336292
7	15685619	80	1.3458040896027
7	15984065	81	1.3586034847119
7	16280235	82	1.3682741064177
7	16575014	83	1.3659476973731
7	16898349	84	1.3208662603413
7	17229815	85	1.3481717095743
7	17569008	86	1.3378463850919
7	17922152	87	1.3572962709198
7	18281789	88	1.3205168958262
7	18650567	89	1.3450882908526
7	19038057	90	1.324608698746
7	19441840	91	1.346193387144
7	19869372	92	1.3671496197316
7	20306342	93	1.3577013750425
7	20768810	94	1.3315196666938
7	21259352	95	1.3429034114395
7	21762959	96	1.3614182474622
7	22285593	97	1.3756337306404
7	22822020	98	1.3475554091727
7	23391687	99	1.3218649788986
7	23975219	100	1.382738648972
7	24552444	101	1.3417966025493
7	25165502	102	1.3811676407608
7	25782599	103	1.3867121524203
7	26448973	104	1.3403383597324
7	27131862	105	1.3659135222002
7	27817532	106	1.3457514368606
7	28523677	107	1.3732739109966
7	29255782	108	1.3303257246379
7	29983486	109	1.3352487155256
7	30718103	110	1.328563352856
7	31486870	111	1.3394369153442
7	32249999	112	1.3299994738999
7	33015920	113	1.3312332204077
7	33791795	114	1.3267664129509
7	34582282	115	1.3839116962885
7	35358767	116	1.347666421045
7	36127384	117	1.3369592158253
7	36891078	118	1.3417263426527
7	37662529	119	1.3387757614772
7	38427628	120	1.3411002560234
7	39216605	121	1.3466661220041
7	40009732	122	1.3589898138242
7	40809604	123	1.3639412020307
7	41606991	124	1.3609570588192
7	42398755	125	1.3559669598342
7	43201307	126	1.3716663847542
7	43991722	127	1.3569234198884
7	44788754	128	1.3677689128639
7	45586315	129	1.347412275338
7	46387000	130	1.343430765911
7	47181136	131	1.3858252536415
7	47991624	132	1.375154515392
7	48799166	133	1.3597027392663
7	49578148	134	1.3707539071846
7	50359024	135	1.3249639225897
7	51142453	136	1.3480628646115
7	51918607	137	1.3540562709871
7	52700267	138	1.3284586931695
7	53469690	139	1.3328728781522
7	54248004	140	1.3777913245334
7	55066819	141	1.3594318034302
7	55900087	142	1.3389159690188
7	56732434	143	1.3724621828038
7	57595441	144	1.3869337418227
7	58468542	145	1.3391108002624
7	59366511	146	1.3634663574016
7	60289451	147	1.3687133908065
7	61230584	148	1.3260332920052
7	62193205	149	1.3881297878106
7	63145664	150	1.3418031262053
7	64149657	151	1.322516834124
7	65168822	152	1.328626985099
7	66213637	153	1.3508224907855
7	67285616	154	1.3358464591309
7	68396726	155	1.3416051350941
7	69540645	156	1.3762446599139
7	70702908	157	1.3232945599076
7	71918890	158	1.3778467421717
7	73161677	159	1.3727946023735
7	74441529	160	1.323772279688
7	75710189	161	1.3875062243864
7	77006633	162	1.3550497747848
7	78346591	163	1.3701076151726
7	79697438	164	1.3339525653929
7	81070627	165	1.334503320201
7	82476743	166	1.3608462993579
7	83880595	167	1.3384572148304
7	85272179	168	1.3830189290618
7	86673700	169	1.3538029862361
7	88074364	170	1.3888888888889
7	89511974	171	1.3888888888889
7	90988115	172	1.3888888888889
7	92478627	173	1.3286080200406
7	93946129	174	1.3722390879411
7	95423570	175	1.3195987516439
7	96890142	176	1.3749855822405
7	98382092	177	1.357867685276
7	99862447	178	1.3480843016037
7	101354113	179	1.3551517755291
7	102809281	180	1.37581094367
7	104267844	181	1.3378042595933
7	105725084	182	1.34138652822
7	107157445	183	1.3292069740419
7	108586075	184	1.3520870584277
7	110027644	185	1.3558539696775
7	111477743	186	1.3730960360166
7	112939715	187	1.3432450492595
7	114396358	188	1.3552860196473
7	115845588	189	1.3399961827316
7	117297455	190	1.373027692688
7	118713892	191	1.3603576078701
7	120132619	192	1.3719057975686
7	121549449	193	1.3698884936134
7	122955511	194	1.3363499304493
7	124358890	195	1.3886577803997
7	125760453	196	1.3509509975039
7	127129616	197	1.368742362069
7	128552406	198	1.3718590520633
7	129987348	199	1.3434735287673
7	131426794	200	1.3814522652441
4	452	3	1577.7175120478
4	933	4	1577.7175120478
4	1757	5	1578.1817473844
4	3025	6	1578.6515230266
4	5545	7	1579.117475654
4	10264	8	1579.5862869648
4	17676	9	1580.0546950689
4	29111	10	1580.5210820567
4	44941	11	1580.985262854
4	70091	12	1581.7919730702
4	113803	13	1582.760125488
4	182346	14	1583.730228493
4	267195	15	1584.6932273181
4	360425	16	1585.6554215169
4	454040	17	1586.6267911047
4	559775	18	1587.5962781524
4	672011	19	1588.5552835241
4	784532	20	1589.5217205575
4	894999	21	1590.4825511212
4	1006426	22	1591.440856616
4	1128739	23	1592.4053333895
4	1263703	24	1593.3658743147
4	1399448	25	1594.3306228481
4	1534902	26	1595.3018005323
4	1671668	27	1596.2636136133
4	1818627	28	1597.2333950382
4	1981147	29	1598.1944247689
4	2142582	30	1599.1581535488
4	2301622	31	1600.1232494442
4	2477994	32	1601.0815512175
4	2665391	33	1602.041725182
4	2851294	34	1603.0070461575
4	3037823	35	1603.9752655244
4	3224833	36	1604.9316429021
4	3428229	37	1605.8895550594
4	3647221	38	1606.8514696704
4	3863400	39	1607.8119131206
4	4074669	40	1608.770668623
4	4290041	41	1609.7320064818
4	4523064	42	1610.6965625603
4	4767745	43	1611.6549514467
4	5012415	44	1612.6154163238
4	5254273	45	1613.5808615293
4	5493869	46	1614.549022167
4	5752088	47	1615.5108598443
4	6024997	48	1616.4660618817
4	6295205	49	1617.4218175607
4	6565001	50	1618.3842012752
4	6856567	51	1619.3501014933
4	7157737	52	1620.3104344532
4	7457660	53	1621.2813955257
4	7761350	54	1622.2442066465
4	8072844	55	1623.2069757441
4	8379957	56	1624.1736842962
4	8681997	57	1625.1361792162
4	8987334	58	1626.0923441546
4	9290561	59	1627.0506468853
4	9592266	60	1628.0140153756
4	9898191	61	1628.9811706841
4	10204181	62	1629.9475955721
4	10511018	63	1630.9035217557
4	10821120	64	1631.8751259651
4	11121593	65	1632.8390554376
4	11426185	66	1633.8045463059
4	11732169	67	1634.7672162559
4	12045441	68	1635.721535828
4	12354227	69	1636.6879251543
4	12657412	70	1637.6517748376
4	12962990	71	1638.6171648875
4	13265380	72	1639.5842990791
4	13569356	73	1640.5459178416
4	13874560	74	1641.5057094926
4	14179473	75	1642.4763726005
4	14486016	76	1643.4400450345
4	14786028	77	1644.4022922534
4	15084772	78	1645.364075968
4	15386357	79	1646.3263715124
4	15685619	80	1647.3728974406
4	15984065	81	1648.4427516796
4	16280235	82	1649.5071664751
4	16575014	83	1650.5730157252
4	16898349	84	1651.6350225303
4	17229815	85	1652.6928949961
4	17569008	86	1653.7547169188
4	17922152	87	1654.8186117886
4	18281789	88	1655.8861463824
4	18650567	89	1657.113830531
4	19038057	90	1658.4550302615
4	19441840	91	1659.7857291065
4	19869372	92	1661.114996098
4	20306342	93	1662.4542392297
4	20768810	94	1663.7945947805
4	21259352	95	1665.1405570246
4	21762959	96	1666.4851412689
4	22285593	97	1667.8326116549
4	22822020	98	1669.1688128579
4	23391687	99	1670.3854994532
4	23975219	100	1671.5055349944
4	24552444	101	1672.4924061215
4	25165502	102	1673.3605221407
4	25782599	103	1674.2126853671
4	26448973	104	1675.0659569744
4	27131862	105	1675.9144820645
4	27817532	106	1676.7676418871
4	28523677	107	1677.6161301499
4	29255782	108	1678.4644833189
4	29983486	109	1679.3188311681
4	30718103	110	1680.2024094658
4	31486870	111	1681.1128953565
4	32249999	112	1682.0226125913
4	33015920	113	1682.9346327595
4	33791795	114	1683.8392133489
4	34582282	115	1684.7395233009
4	35358767	116	1685.6560530243
4	36127384	117	1686.5681998273
4	36891078	118	1687.4718024693
4	37662529	119	1688.3814165974
4	38427628	120	1689.2807169063
4	39216605	121	1690.1833650749
4	40009732	122	1691.0890196785
4	40809604	123	1691.998326486
4	41606991	124	1692.9081434831
4	42398755	125	1693.8110837433
4	43201307	126	1694.1490409486
4	43991722	127	1694.3499297034
4	44788754	128	1694.5506637758
4	45586315	129	1694.7509999415
4	46387000	130	1694.9517364213
4	47181136	131	1695.1525052292
4	47991624	132	1695.3529062271
4	48799166	133	1695.5532385446
4	49578148	134	1695.7539165113
4	50359024	135	1695.9547837563
4	51142453	136	1696.1544982335
4	51918607	137	1696.3542142613
4	52700267	138	1696.5182264205
4	53469690	139	1696.678877295
4	54248004	140	1696.8391244337
4	55066819	141	1697.0001884606
4	55900087	142	1697.1597498404
4	56732434	143	1697.3205984198
4	57595441	144	1697.4802494599
4	58468542	145	1697.6117281048
4	59366511	146	1697.7383905202
4	60289451	147	1697.8674577195
4	61230584	148	1697.9955072729
4	62193205	149	1698.1234500231
4	63145664	150	1698.2507664058
4	64149657	151	1698.378924882
4	65168822	152	1698.5063188141
4	66213637	153	1698.6332336841
4	67285616	154	1698.7607225832
4	68396726	155	1698.8873332292
4	69540645	156	1699.0142623279
4	70702908	157	1699.1423740648
4	71918890	158	1699.2696894361
4	73161677	159	1699.3975221468
4	74441529	160	1699.5261275172
4	75710189	161	1699.6528133554
4	77006633	162	1699.7806949187
4	78346591	163	1699.9071927667
4	79697438	164	1700.0349641349
4	81070627	165	1700.1628797697
4	82476743	166	1700.2895631315
4	83880595	167	1700.4170346158
4	85272179	168	1700.5450672302
4	86673700	169	1700.6732671065
4	88074364	170	1700.8002881082
4	89511974	171	1700.9067441961
4	90988115	172	1700.9870283483
4	92478627	173	1701.0673125014
4	93946129	174	1701.1161188278
4	95423570	175	1701.0526422951
4	96890142	176	1700.9880005866
4	98382092	177	1700.8148563122
4	99862447	178	1700.3284845147
4	101354113	179	1699.8374929568
4	102809281	180	1698.8327787509
4	104267844	181	1697.7971750228
4	105725084	182	1696.4732052274
4	107157445	183	1695.1371045532
4	108586075	184	1693.7992076287
4	110027644	185	1692.4430086603
4	111477743	186	1691.0833717175
4	112939715	187	1689.7232961589
4	114396358	188	1688.3713207459
4	115845588	189	1687.013067469
4	117297455	190	1685.663890033
4	118713892	191	1684.3008727338
4	120132619	192	1682.938941
4	121549449	193	1681.580162555
4	122955511	194	1680.2293664897
4	124358890	195	1678.8597265538
4	125760453	196	1677.4972541481
4	127129616	197	1676.1420401707
4	128552406	198	1674.7769714249
4	129987348	199	1673.4205863643
4	131426794	200	1672.0636908803
3	452	3	2416.8733999323
3	933	4	2416.8733999323
3	1757	5	2415.6091245101
3	3025	6	2414.3297608945
3	5545	7	2413.0608086878
3	10264	8	2411.784071286
3	17676	9	2410.5084319564
3	29111	10	2409.2382968365
3	44941	11	2407.9741699421
3	70091	12	2406.9264332583
3	113803	13	2405.9705753099
3	182346	14	2405.0127915443
3	267195	15	2404.0620217433
3	360425	16	2403.1120463513
3	454040	17	2402.1530120872
3	559775	18	2401.195836457
3	672011	19	2400.249009397
3	784532	20	2399.2948450497
3	894999	21	2398.3462159754
3	1006426	22	2397.4000799049
3	1128739	23	2396.4478509233
3	1263703	24	2395.4995078107
3	1399448	25	2394.5470105201
3	1534902	26	2393.5881657234
3	1671668	27	2392.6385666089
3	1818627	28	2391.6811003394
3	1981147	29	2390.7322746279
3	2142582	30	2389.7807841415
3	2301622	31	2388.8279439007
3	2477994	32	2387.8818115046
3	2665391	33	2386.9338306915
3	2851294	34	2385.9807682297
3	3037823	35	2385.0248441817
3	3224833	36	2384.0806117429
3	3428229	37	2383.134864015
3	3647221	38	2382.1851646596
3	3863400	39	2381.2369177836
3	4074669	40	2380.2903374197
3	4290041	41	2379.3412074929
3	4523064	42	2378.3889002138
3	4767745	43	2377.4426818109
3	5012415	44	2376.4944137797
3	5254273	45	2375.5412286645
3	5493869	46	2374.5853626007
3	5752088	47	2373.6357392023
3	6024997	48	2372.692667178
3	6295205	49	2371.7490485441
3	6565001	50	2370.7988860424
3	6856567	51	2369.8452516927
3	7157737	52	2368.8971139035
3	7457660	53	2367.9384829677
3	7761350	54	2366.9878984872
3	8072844	55	2366.0373554967
3	8379957	56	2365.0829230784
3	8681997	57	2364.1326507836
3	8987334	58	2363.1886280864
3	9290561	59	2362.2424947449
3	9592266	60	2361.2913599727
3	9898191	61	2360.3364864716
3	10204181	62	2359.382334115
3	10511018	63	2358.4385471408
3	10821120	64	2357.4792812344
3	11121593	65	2356.5275926044
3	11426185	66	2355.5743624067
3	11732169	67	2354.6239173049
3	12045441	68	2353.6817165394
3	12354227	69	2352.7275992931
3	12657412	70	2351.775989439
3	12962990	71	2350.8228587795
3	13265380	72	2349.8680061267
3	13569356	73	2348.9185988631
3	13874560	74	2347.9709955091
3	14179473	75	2347.0126587533
3	14486016	76	2346.0612238974
3	14786028	77	2345.111196158
3	15084772	78	2344.1616260377
3	15386357	79	2343.2115505867
3	15685619	80	2342.3603202367
3	15984065	81	2341.5245982321
3	16280235	82	2340.6931252765
3	16575014	83	2339.8605317896
3	16898349	84	2339.0309398472
3	17229815	85	2338.2045774654
3	17569008	86	2337.3751299453
3	17922152	87	2336.5440631324
3	18281789	88	2335.7101531302
3	18650567	89	2335.2148286357
3	19038057	90	2334.992126326
3	19441840	91	2334.7711676578
3	19869372	92	2334.5504467448
3	20306342	93	2334.3280693226
3	20768810	94	2334.1055071866
3	21259352	95	2333.9498430337
3	21762959	96	2333.8549312047
3	22285593	97	2333.9544207564
3	22822020	98	2334.1650831084
3	23391687	99	2334.7365031659
3	23975219	100	2335.4644253515
3	24552444	101	2336.3808056843
3	25165502	102	2337.4193699701
3	25782599	103	2338.4746018797
3	26448973	104	2339.5312062956
3	27131862	105	2340.5819331093
3	27817532	106	2341.6383991021
3	28523677	107	2342.6890803128
3	29255782	108	2343.7395942376
3	29983486	109	2344.7975313618
3	30718103	110	2345.8214575307
3	31486870	111	2346.8310612149
3	32249999	112	2347.8398125665
3	33015920	113	2348.851117554
3	33791795	114	2349.8541730711
3	34582282	115	2350.8524930392
3	35358767	116	2351.8687985034
3	36127384	117	2352.8802439113
3	36891078	118	2353.8822150197
3	37662529	119	2354.8908520404
3	38427628	120	2355.888052452
3	39216605	121	2356.8889651807
3	40009732	122	2357.8932116326
3	40809604	123	2358.9015078758
3	41606991	124	2359.9103698495
3	42398755	125	2360.9116064673
3	43201307	126	2362.1740438371
3	43991722	127	2363.5180652542
3	44788754	128	2364.861051789
3	45586315	129	2366.2013761741
3	46387000	130	2367.5443788206
3	47181136	131	2368.8875977445
3	47991624	132	2370.2283558866
3	48799166	133	2371.5686545292
3	49578148	134	2372.9112656947
3	50359024	135	2374.2551432062
3	51142453	136	2375.5913082672
3	51918607	137	2376.9274837014
3	52700267	138	2378.2613487688
3	53469690	139	2379.6111029878
3	54248004	140	2380.9574651055
3	55066819	141	2382.3106905476
3	55900087	142	2383.651291073
3	56732434	143	2385.002706368
3	57595441	144	2386.3440601925
3	58468542	145	2387.6915993053
3	59366511	146	2389.0311389116
3	60289451	147	2390.3961107156
3	61230584	148	2391.7503202428
3	62193205	149	2393.1034002438
3	63145664	150	2394.4498559926
3	64149657	151	2395.8052174486
3	65168822	152	2397.1524933291
3	66213637	153	2398.4947028187
3	67285616	154	2399.8429830446
3	68396726	155	2401.1819751611
3	69540645	156	2402.5243351222
3	70702908	157	2403.8792022761
3	71918890	158	2405.2256473277
3	73161677	159	2406.5775635929
3	74441529	160	2407.9376512495
3	75710189	161	2409.2774385734
3	77006633	162	2410.6298714865
3	78346591	163	2411.967670685
3	79697438	164	2413.3189382126
3	81070627	165	2414.6717314458
3	82476743	166	2416.0114925803
3	83880595	167	2417.3595886341
3	85272179	168	2418.7136190132
3	86673700	169	2420.0694183038
3	88074364	170	2421.4127501972
3	89511974	171	2422.784544007
3	90988115	172	2424.17098956
3	92478627	173	2425.5574351129
3	93946129	174	2426.9336963773
3	95423570	175	2428.2767261714
3	96890142	176	2429.6444086485
3	98382092	177	2430.9846971362
3	99862447	178	2432.2466347739
3	101354113	179	2433.5205588151
3	102809281	180	2434.3940558223
3	104267844	181	2435.2726173424
3	105725084	182	2435.5428152598
3	107157445	183	2435.8154888666
3	108586075	184	2435.8767619241
3	110027644	185	2435.8853261564
3	111477743	186	2435.8939120991
3	112939715	187	2435.9025008115
3	114396358	188	2435.9110383724
3	115845588	189	2435.9196155774
3	117297455	190	2435.9281354696
3	118713892	191	2435.9367427587
3	120132619	192	2435.9453431927
3	121549449	193	2435.953923714
3	122955511	194	2435.9624538275
3	124358890	195	2435.9711029378
3	125760453	196	2435.9797067861
3	127129616	197	2435.9882647983
3	128552406	198	2435.9968850421
3	129987348	199	2436.0054504494
3	131426794	200	2436.0140190801
24	182346	14	1.2182253288638
24	267195	15	1.1935882062483
24	360425	16	1.2048977821424
24	454040	17	1.1840808368978
24	559775	18	1.1722966599082
24	672011	19	1.1877172080819
24	784532	20	1.1698193410345
24	894999	21	1.1950638413795
24	1006426	22	1.1684694389812
24	1128739	23	1.1792521070094
24	1263703	24	1.1819652947568
24	1399448	25	1.1761575392496
24	1534902	26	1.1594789190033
24	1671668	27	1.1845436487743
24	1818627	28	1.1670157991779
24	1981147	29	1.1926922616043
24	2142582	30	1.161902217399
24	2301622	31	1.1690388821356
24	2477994	32	1.1884259805697
24	2665391	33	1.1669274593237
24	2851294	34	1.1722635318026
24	3037823	35	1.1876364589268
24	3224833	36	1.1836087696394
24	3428229	37	1.1640375148834
24	3647221	38	1.1689772915668
24	3863400	39	1.170593170766
24	4074669	40	1.1809928277714
24	4290041	41	1.1758913478406
24	4523064	42	1.1703416672506
24	4767745	43	1.1762059597647
24	5012415	44	1.1941220781003
24	5254273	45	1.1658479789748
24	5493869	46	1.1668756913156
24	5752088	47	1.1760293160307
24	6024997	48	1.1935760518743
24	6295205	49	1.1722810594343
24	6565001	50	1.1725432177712
24	6856567	51	1.1767781678412
24	7157737	52	1.1821318305126
24	7457660	53	1.1659078990949
24	7761350	54	1.185572827955
24	8072844	55	1.1581248339603
24	8379957	56	1.1874281930833
24	8681997	57	1.179693633298
24	8987334	58	1.1704344955864
24	9290561	59	1.1756608121431
24	9592266	60	1.1871235616897
24	9898191	61	1.1772751068348
24	10204181	62	1.1645494133984
24	10511018	63	1.1694694521409
24	10821120	64	1.189431644625
24	11121593	65	1.177548837493
24	11426185	66	1.1591340809482
24	11732169	67	1.1890666513585
24	12045441	68	1.1791456755052
24	12354227	69	1.1772277005511
24	12657412	70	1.157330482404
24	12962990	71	1.1724563487098
24	13265380	72	1.1870569514877
24	13569356	73	1.1832461444051
24	13874560	74	1.1726171057466
24	14179473	75	1.1772253719736
24	14486016	76	1.1791590808063
24	14786028	77	1.17661198717
24	15084772	78	1.1573465923512
24	15386357	79	1.1770177815506
24	15685619	80	1.1930686248719
24	15984065	81	1.1654633187355
24	16280235	82	1.1712908804162
24	16575014	83	1.169996919894
24	16898349	84	1.1709786280335
24	17229815	85	1.1771105794822
24	17569008	86	1.182435948557
24	17922152	87	1.1691974922675
24	18281789	88	1.1786143973956
24	18650567	89	1.1814826996466
24	19038057	90	1.1621709434917
24	19441840	91	1.1762253718609
24	19869372	92	1.1733198459585
24	20306342	93	1.1946398057475
24	20768810	94	1.1714484692276
24	21259352	95	1.1648202181845
24	21762959	96	1.1798908849228
24	22285593	97	1.1781642809475
24	22822020	98	1.185762492649
24	23391687	99	1.1572182095444
24	23975219	100	1.191359514726
24	24552444	101	1.1678420126077
24	25165502	102	1.1881967966735
24	25782599	103	1.1707228300858
24	26448973	104	1.1692871747977
24	27131862	105	1.1767556442339
24	27817532	106	1.1671382726357
24	28523677	107	1.1750813098704
24	29255782	108	1.1946595242735
24	29983486	109	1.1726635324641
24	30718103	110	1.1656534868898
24	31486870	111	1.1800972765685
24	32249999	112	1.1746852895947
24	33015920	113	1.1709613039663
24	33791795	114	1.1853730466
24	34582282	115	1.1645173515314
24	35358767	116	1.1819591026357
24	36127384	117	1.1794018441945
24	36891078	118	1.1631380978951
24	37662529	119	1.1760898947805
24	38427628	120	1.1741433242818
24	39216605	121	1.1950590473111
24	40009732	122	1.1731605015792
24	40809604	123	1.1711548461205
24	41606991	124	1.1693037051598
24	42398755	125	1.1825485585671
24	43201307	126	1.1642326769821
24	43991722	127	1.1711299130068
24	44788754	128	1.1837745388328
24	45586315	129	1.1644299897016
24	46387000	130	1.1855234782544
24	47181136	131	1.1835345945372
24	47991624	132	1.1642901976345
24	48799166	133	1.176799453814
24	49578148	134	1.1844654211358
24	50359024	135	1.1610362876785
24	51142453	136	1.1827596609824
24	51918607	137	1.178299397646
24	52700267	138	1.1704532474681
24	53469690	139	1.1678226265602
24	54248004	140	1.1878062723978
24	55066819	141	1.1745669885468
24	55900087	142	1.1644262889848
24	56732434	143	1.1758658176491
24	57595441	144	1.1823959047488
24	58468542	145	1.1816840596397
24	59366511	146	1.1771572478139
24	60289451	147	1.1695924909178
24	61230584	148	1.1676996272784
24	62193205	149	1.1796960555168
24	63145664	150	1.1655122693474
24	64149657	151	1.1774717568592
24	65168822	152	1.1741615338051
24	66213637	153	1.1729352966304
24	67285616	154	1.1818024580339
24	68396726	155	1.1674488976
24	69540645	156	1.1730268978223
24	70702908	157	1.176994416444
24	71918890	158	1.1772725496489
24	73161677	159	1.1683175967801
24	74441529	160	1.1866800779373
24	75710189	161	1.1672081947416
24	77006633	162	1.1845866307354
24	78346591	163	1.1837453386286
24	79697438	164	1.1583636068704
24	81070627	165	1.1815639608754
24	82476743	166	1.1652901826816
24	83880595	167	1.1954704158389
24	85272179	168	1.1803965533213
24	86673700	169	1.1743114261174
24	88074364	170	1.1714322491065
24	89511974	171	1.1691169407975
24	90988115	172	1.1693214818152
24	92478627	173	1.1757217845382
24	93946129	174	1.1809753932126
24	95423570	175	1.1866675657761
24	96890142	176	1.1648432507547
24	98382092	177	1.1680109738814
24	99862447	178	1.1745188338137
24	101354113	179	1.1839144095063
24	102809281	180	1.169975118152
24	104267844	181	1.1936102344826
24	105725084	182	1.1772475
24	107157445	183	1.1772475
24	108586075	184	1.1531527720743
24	110027644	185	1.1932916528726
24	111477743	186	1.1622015588625
24	112939715	187	1.1833513121479
24	114396358	188	1.1688425846456
24	115845588	189	1.1699431678356
24	117297455	190	1.1979500784697
24	118713892	191	1.167422667645
24	120132619	192	1.1836567502166
24	121549449	193	1.1658853282857
24	122955511	194	1.1889580542236
24	124358890	195	1.1595158857561
24	125760453	196	1.1786037360183
24	127129616	197	1.1670201528912
24	128552406	198	1.1806053765676
24	129987348	199	1.1771423791221
24	131426794	200	1.1809589397589
23	182346	14	0.22667053236211
23	267195	15	0.10051684698248
23	360425	16	0.11108264136999
23	454040	17	0.035905735246178
23	559775	18	-0.0015153689206744
23	672011	19	0.040286493804778
23	784532	20	-0.013359793643695
23	894999	21	0.055057342260594
23	1006426	22	-0.022078057146774
23	1128739	23	0.0094238657894627
23	1263703	24	0.01523701788988
23	1399448	25	-0.0019260955840763
23	1534902	26	-0.046812164617836
23	1671668	27	0.026642506586487
23	1818627	28	-0.023737763094816
23	1981147	29	0.047205651628448
23	2142582	30	-0.040441683700515
23	2301622	31	-0.01614644583444
23	2477994	32	0.037685936016108
23	2665391	33	-0.024516049080477
23	2851294	34	-0.006971031834837
23	3037823	35	0.034722127376073
23	3224833	36	0.019360024792453
23	3428229	37	-0.034982381896245
23	3647221	38	-0.017434591152576
23	3863400	39	-0.010852944849628
23	4074669	40	0.018643029729396
23	4290041	41	0.00249012876405
23	4523064	42	-0.012829651647087
23	4767745	43	0.0047106920262903
23	5012415	44	0.050732477991712
23	5254273	45	-0.030106429848173
23	5493869	46	-0.023830851673692
23	5752088	47	0.00403422580098
23	6024997	48	0.049222566594835
23	6295205	49	-0.012763470375729
23	6565001	50	-0.010504772653803
23	6856567	51	0.0020747995019583
23	7157737	52	0.015818321933556
23	7457660	53	-0.029259169079726
23	7761350	54	0.026597776240022
23	8072844	55	-0.050469113256493
23	8379957	56	0.034867526537863
23	8681997	57	0.009793812172979
23	8987334	58	-0.016021889178724
23	9290561	59	-3.1574830143155e-05
23	9592266	60	0.029909641815897
23	9898191	61	0.00037999075698281
23	10204181	62	-0.033606162565494
23	10511018	63	-0.016282563801722
23	10821120	64	0.038696955390506
23	11121593	65	0.0024850315780072
23	11426185	66	-0.047615371747977
23	11732169	67	0.038719397141702
23	12045441	68	0.0075047122178755
23	12354227	69	0.0015017893585738
23	12657412	70	-0.052683029759355
23	12962990	71	-0.0046432711090729
23	13265380	72	0.034946380926865
23	13569356	73	0.020004202621446
23	13874560	74	-0.010576825685954
23	14179473	75	0.0029803151846863
23	14486016	76	0.00766758304154
23	14786028	77	-1.1811353033409e-05
23	15084772	78	-0.05240254954616
23	15386357	79	0.0079978713428352
23	15685619	80	0.048811571293981
23	15984065	81	-0.030386523286228
23	16280235	82	-0.010925869179669
23	16575014	83	-0.013087186476606
23	16898349	84	-0.00874002521093
23	17229815	85	0.0091144373414844
23	17569008	86	0.022046858047999
23	17922152	87	-0.016428496264009
23	18281789	88	0.011125795524254
23	18650567	89	0.017180244326085
23	19038057	90	-0.037214788123189
23	19441840	91	0.0059307535573478
23	19869372	92	-0.0027311748191197
23	20306342	93	0.053625556227612
23	20768810	94	-0.014179859980983
23	21259352	95	-0.030484295289964
23	21762959	96	0.014071252623038
23	22285593	97	0.0075821671665726
23	22822020	98	0.026373112780445
23	23391687	99	-0.053499530088933
23	23975219	100	0.044729625094786
23	24552444	101	-0.023240612097619
23	25165502	102	0.033433040793743
23	25782599	103	-0.016693325514648
23	26448973	104	-0.018555798863541
23	27131862	105	0.0038254901204784
23	27817532	106	-0.022657555738179
23	28523677	107	0.0018320519367596
23	29255782	108	0.05271432726614
23	29983486	109	-0.011583919258555
23	30718103	110	-0.029092619811618
23	31486870	111	0.013345687562147
23	32249999	112	-0.0027843253556292
23	33015920	113	-0.012444925691554
23	33791795	114	0.027408064057464
23	34582282	115	-0.03180319012699
23	35358767	116	0.019118023515653
23	36127384	117	0.009773051311236
23	36891078	118	-0.035282679131746
23	37662529	119	0.0043903263900169
23	38427628	120	-0.0014385389254634
23	39216605	121	0.053363162924254
23	40009732	122	-0.010630009909629
23	40809604	123	-0.014672884387628
23	41606991	124	-0.017888868742556
23	42398755	125	0.019720419530605
23	43201307	126	-0.031982366522748
23	43991722	127	-0.0091772084124386
23	44788754	128	0.025986443538891
23	45586315	129	-0.029699525976967
23	46387000	130	0.031118819218439
23	47181136	131	0.021455689857248
23	47991624	132	-0.032692677664777
23	48799166	133	0.0052422028481183
23	49578148	134	0.024721674611404
23	50359024	135	-0.041398798995134
23	51142453	136	0.022635334979795
23	51918607	137	0.0077323130487152
23	52700267	138	-0.014258797487451
23	53469690	139	-0.019703578743954
23	54248004	140	0.036349657570503
23	55066819	141	-0.0035041093037256
23	55900087	142	-0.030629898634895
23	56732434	143	0.0044522413938668
23	57595441	144	0.021240295754978
23	58468542	145	0.016403864089322
23	59366511	146	0.0023333760812723
23	60289451	147	-0.018123566939418
23	61230584	148	-0.021103144633041
23	62193205	149	0.013995607684289
23	63145664	150	-0.026293163294516
23	64149657	151	0.0097447005423925
23	65168822	152	-0.00050962349632755
23	66213637	153	-0.0037747501725487
23	67285616	154	0.020537945593888
23	68396726	155	-0.020903827858597
23	69540645	156	-0.0029843291849829
23	70702908	157	0.0081701171681441
23	71918890	158	0.0078053206541677
23	73161677	159	-0.017547929100046
23	74441529	160	0.034066435376493
23	75710189	161	-0.022595113146559
23	77006633	162	0.026920433172361
23	78346591	163	0.020914589614323
23	79697438	164	-0.049915391460268
23	81070627	165	0.019274914520793
23	82476743	166	-0.027250327418895
23	83880595	167	0.056451168606549
23	85272179	168	0.0095899314490251
23	86673700	169	-0.0075459284158166
23	88074364	170	-0.014258989152343
23	89511974	171	-0.018770663446048
23	90988115	172	-0.015936766899863
23	92478627	173	0.0034762222720826
23	93946129	174	0.01701430019845
23	95423570	175	0.029440408591957
23	96890142	176	-0.032165319603842
23	98382092	177	-0.019749750887665
23	99862447	178	0.00049102601931539
23	101354113	179	0.025452146348673
23	102809281	180	-0.015138886859252
23	104267844	181	0.04888451795624
23	105725084	182	0
23	107157445	183	0
23	108586075	184	-0.065532005472859
23	110027644	185	0.050644671492692
23	111477743	186	-0.03864290170087
23	112939715	187	0.023165507542823
23	114396358	188	-0.0186306351356
23	115845588	189	-0.013341733348271
23	117297455	190	0.061927899013325
23	118713892	191	-0.025999199974144
23	120132619	192	0.020150581484712
23	121549449	193	-0.029495924083878
23	122955511	194	0.035098009248031
23	124358890	195	-0.047598997852118
23	125760453	196	0.0099110779410694
23	127129616	197	-0.022664593998343
23	128552406	198	0.016983147684692
23	129987348	199	0.0054559308369386
23	131426794	200	0.014803792340293
22	113803	13	0.82437053541553
22	182346	14	1.0510410677776
22	267195	15	1.1515579147601
22	360425	16	1.2626405561301
22	454040	17	1.2985462913763
22	559775	18	1.2970309224556
22	672011	19	1.3373174162604
22	784532	20	1.3239576226167
22	894999	21	1.3790149648773
22	1006426	22	1.3569369077305
22	1128739	23	1.36636077352
22	1263703	24	1.3815977914099
22	1399448	25	1.3796716958258
22	1534902	26	1.3328595312079
22	1671668	27	1.3595020377944
22	1818627	28	1.3357642746996
22	1981147	29	1.3829699263281
22	2142582	30	1.3425282426275
22	2301622	31	1.3263817967931
22	2477994	32	1.3640677328092
22	2665391	33	1.3395516837287
22	2851294	34	1.3325806518939
22	3037823	35	1.36730277927
22	3224833	36	1.3866628040624
22	3428229	37	1.3516804221662
22	3647221	38	1.3342458310136
22	3863400	39	1.323392886164
22	4074669	40	1.3420359158934
22	4290041	41	1.3445260446574
22	4523064	42	1.3316963930103
22	4767745	43	1.3364070850366
22	5012415	44	1.3871395630283
22	5254273	45	1.3570331331802
22	5493869	46	1.3332022815065
22	5752088	47	1.3372365073075
22	6024997	48	1.3864590739023
22	6295205	49	1.3736956035266
22	6565001	50	1.3631908308728
22	6856567	51	1.3652656303747
22	7157737	52	1.3810839523083
22	7457660	53	1.3518247832285
22	7761350	54	1.3784225594686
22	8072844	55	1.3279534462121
22	8379957	56	1.3628209727499
22	8681997	57	1.3726147849229
22	8987334	58	1.3565928957442
22	9290561	59	1.356561320914
22	9592266	60	1.3864709627299
22	9898191	61	1.3868509534869
22	10204181	62	1.3532447909214
22	10511018	63	1.3369622271197
22	10821120	64	1.3756591825102
22	11121593	65	1.3781442140882
22	11426185	66	1.3305288423402
22	11732169	67	1.369248239482
22	12045441	68	1.3767529516998
22	12354227	69	1.3782547410584
22	12657412	70	1.325571711299
22	12962990	71	1.32092844019
22	13265380	72	1.3558748211168
22	13569356	73	1.3758790237383
22	13874560	74	1.3653021980523
22	14179473	75	1.368282513237
22	14486016	76	1.3759500962786
22	14786028	77	1.3759382849255
22	15084772	78	1.3235357353794
22	15386357	79	1.3315336067222
22	15685619	80	1.3803451780162
22	15984065	81	1.3499586547299
22	16280235	82	1.3390327855503
22	16575014	83	1.3259455990737
22	16898349	84	1.3172055738627
22	17229815	85	1.3263200112042
22	17569008	86	1.3483668692522
22	17922152	87	1.3319383729882
22	18281789	88	1.3430641685125
22	18650567	89	1.3602444128386
22	19038057	90	1.3230296247154
22	19441840	91	1.3289603782727
22	19869372	92	1.3262292034536
22	20306342	93	1.3798547596812
22	20768810	94	1.3656748997002
22	21259352	95	1.3351906044103
22	21762959	96	1.3492618570333
22	22285593	97	1.3568440241999
22	22822020	98	1.3832171369803
22	23391687	99	1.3297176068914
22	23975219	100	1.3744472319862
22	24552444	101	1.3512066198886
22	25165502	102	1.3846396606823
22	25782599	103	1.3679463351676
22	26448973	104	1.3493905363041
22	27131862	105	1.3532160264246
22	27817532	106	1.3305584706864
22	28523677	107	1.3323905226232
22	29255782	108	1.3851048498893
22	29983486	109	1.3735209306307
22	30718103	110	1.3444283108191
22	31486870	111	1.3577739983813
22	32249999	112	1.3549896730256
22	33015920	113	1.3425447473341
22	33791795	114	1.3699528113916
22	34582282	115	1.3381496212646
22	35358767	116	1.3572676447802
22	36127384	117	1.3670406960915
22	36891078	118	1.3317580169597
22	37662529	119	1.3361483433497
22	38427628	120	1.3347098044243
22	39216605	121	1.3880729673485
22	40009732	122	1.3774429574389
22	40809604	123	1.3627700730513
22	41606991	124	1.3448812043087
22	42398755	125	1.3646016238393
22	43201307	126	1.3326192573166
22	43991722	127	1.3234420489041
22	44788754	128	1.349428492443
22	45586315	129	1.319728966466
22	46387000	130	1.3508477856845
22	47181136	131	1.3723034755417
22	47991624	132	1.339610797877
22	48799166	133	1.3448530007251
22	49578148	134	1.3695746753365
22	50359024	135	1.3281758763413
22	51142453	136	1.3508112113211
22	51918607	137	1.3585435243699
22	52700267	138	1.3442847268824
22	53469690	139	1.3245811481385
22	54248004	140	1.360930805709
22	55066819	141	1.3574266964052
22	55900087	142	1.3267967977703
22	56732434	143	1.3312490391642
22	57595441	144	1.3524893349192
22	58468542	145	1.3688931990085
22	59366511	146	1.3712265750898
22	60289451	147	1.3531030081504
22	61230584	148	1.3319998635173
22	62193205	149	1.3459954712016
22	63145664	150	1.3197023079071
22	64149657	151	1.3294470084495
22	65168822	152	1.3289373849532
22	66213637	153	1.3251626347806
22	67285616	154	1.3457005803745
22	68396726	155	1.3247967525159
22	69540645	156	1.3218124233309
22	70702908	157	1.3299825404991
22	71918890	158	1.3377878611532
22	73161677	159	1.3202399320532
22	74441529	160	1.3543063674297
22	75710189	161	1.3317112542831
22	77006633	162	1.3586316874555
22	78346591	163	1.3795462770698
22	79697438	164	1.3296308856095
22	81070627	165	1.3489058001303
22	82476743	166	1.3216554727114
22	83880595	167	1.378106641318
22	85272179	168	1.387696572767
22	86673700	169	1.3801506443512
22	88074364	170	1.3658916551988
22	89511974	171	1.3471209917528
22	90988115	172	1.3311842248529
22	92478627	173	1.334660447125
22	93946129	174	1.3516747473235
22	95423570	175	1.3811151559154
22	96890142	176	1.3489498363116
22	98382092	177	1.3292000854239
22	99862447	178	1.3296911114432
22	101354113	179	1.3551432577919
22	102809281	180	1.3400043709326
22	104267844	181	1.3888888888889
22	105725084	182	1.3888888888889
22	107157445	183	1.3888888888889
22	108586075	184	1.323356883416
22	110027644	185	1.3740015549087
22	111477743	186	1.3353586532079
22	112939715	187	1.3585241607507
22	114396358	188	1.3398935256151
22	115845588	189	1.3265517922668
22	117297455	190	1.3884796912801
22	118713892	191	1.362480491306
22	120132619	192	1.3826310727907
22	121549449	193	1.3531351487068
22	122955511	194	1.3882331579549
22	124358890	195	1.3406341601027
22	125760453	196	1.3505452380438
22	127129616	197	1.3278806440455
22	128552406	198	1.3448637917302
22	129987348	199	1.3503197225671
22	131426794	200	1.3651235149074
18	70091	12	1577.3507489096
18	113803	13	1577.3507489096
18	182346	14	1577.5702857627
18	267195	15	1577.8974616835
18	360425	16	1578.2800677251
18	454040	17	1578.7028031023
18	559775	18	1579.1446596244
18	672011	19	1579.5944858035
18	784532	20	1580.0527690565
18	894999	21	1580.5188532909
18	1006426	22	1580.9821578367
18	1128739	23	1581.7917987183
18	1263703	24	1582.7503806176
18	1399448	25	1583.7137377551
18	1534902	26	1584.6810508072
18	1671668	27	1585.6383885564
18	1818627	28	1586.6009120326
18	1981147	29	1587.5531259868
18	2142582	30	1588.5227645673
18	2301622	31	1589.4852777505
18	2477994	32	1590.4440695625
18	2665391	33	1591.4024167508
18	2851294	34	1592.3619490601
18	3037823	35	1593.3217050442
18	3224833	36	1594.2934139948
18	3428229	37	1595.2607861226
18	3647221	38	1596.2278564796
18	3863400	39	1597.195869864
18	4074669	40	1598.1551214317
18	4290041	41	1599.1161017008
18	4523064	42	1600.0828351527
18	4767745	43	1601.0306907771
18	5012415	44	1601.9872785611
18	5254273	45	1602.9534183918
18	5493869	46	1603.9176033083
18	5752088	47	1604.8804195747
18	6024997	48	1605.8385887993
18	6295205	49	1606.8035198301
18	6565001	50	1607.7649472356
18	6856567	51	1608.7305536317
18	7157737	52	1609.689883776
18	7457660	53	1610.6490366505
18	7761350	54	1611.615618526
18	8072844	55	1612.5808831798
18	8379957	56	1613.5478197103
18	8681997	57	1614.5097840745
18	8987334	58	1615.4727068376
18	9290561	59	1616.4327689521
18	9592266	60	1617.3982741646
18	9898191	61	1618.3602851396
18	10204181	62	1619.3188137179
18	10511018	63	1620.2796914363
18	10821120	64	1621.2441341663
18	11121593	65	1622.2092736987
18	11426185	66	1623.170977246
18	11732169	67	1624.133178548
18	12045441	68	1625.0918568661
18	12354227	69	1626.0560802966
18	12657412	70	1627.0221195295
18	12962990	71	1627.9848474534
18	13265380	72	1628.9384623105
18	13569356	73	1629.8988242382
18	13874560	74	1630.8645863123
18	14179473	75	1631.8256375901
18	14486016	76	1632.7886713576
18	14786028	77	1633.7536590761
18	15084772	78	1634.7207665332
18	15386357	79	1635.688635977
18	15685619	80	1636.6575966775
18	15984065	81	1637.6225441387
18	16280235	82	1638.5903078048
18	16575014	83	1639.5562515045
18	16898349	84	1640.522940699
18	17229815	85	1641.4796199957
18	17569008	86	1642.4431435047
18	17922152	87	1643.4049013117
18	18281789	88	1644.3644255549
18	18650567	89	1645.3236866323
18	19038057	90	1646.2811176414
18	19441840	91	1647.3298863545
18	19869372	92	1648.3915880835
18	20306342	93	1649.4616703195
18	20768810	94	1650.5385536635
18	21259352	95	1651.609515761
18	21762959	96	1652.6770016942
18	22285593	97	1653.7447019499
18	22822020	98	1654.8097992819
18	23391687	99	1655.8760286905
18	23975219	100	1657.0745901912
18	24552444	101	1658.4119163686
18	25165502	102	1659.7461218601
18	25782599	103	1661.0819734242
18	26448973	104	1662.4245466208
18	27131862	105	1663.7559748385
18	27817532	106	1665.0921085654
18	28523677	107	1666.4431461487
18	29255782	108	1667.7789226472
18	29983486	109	1669.118017029
18	30718103	110	1670.3542286418
18	31486870	111	1671.4865244329
18	32249999	112	1672.4772040797
18	33015920	113	1673.3483590716
18	33791795	114	1674.1946815997
18	34582282	115	1675.0497176824
18	35358767	116	1675.9038558742
18	36127384	117	1676.7506850697
18	36891078	118	1677.6027998356
18	37662529	119	1678.4508455526
18	38427628	120	1679.296028723
18	39216605	121	1680.1827873057
18	40009732	122	1681.0909766536
18	40809604	123	1681.9932096601
18	41606991	124	1682.9038733244
18	42398755	125	1683.802406013
18	43201307	126	1684.7026587836
18	43991722	127	1685.6089193737
18	44788754	128	1686.5105699925
18	45586315	129	1687.4095231537
18	46387000	130	1688.3149890983
18	47181136	131	1689.2204685081
18	47991624	132	1690.1324480399
18	48799166	133	1691.0387403583
18	49578148	134	1691.9472174468
18	50359024	135	1692.8536022641
18	51142453	136	1693.7584734308
18	51918607	137	1694.1371846581
18	52700267	138	1694.3370824773
18	53469690	139	1694.5372680267
18	54248004	140	1694.7387383264
18	55066819	141	1694.9392669611
18	55900087	142	1695.1382864555
18	56732434	143	1695.3361729737
18	57595441	144	1695.5367980702
18	58468542	145	1695.7372679813
18	59366511	146	1695.9375676559
18	60289451	147	1696.1387187997
18	61230584	148	1696.3387070224
18	62193205	149	1696.507684337
18	63145664	150	1696.6673776386
18	64149657	151	1696.8275233544
18	65168822	152	1696.9879091224
18	66213637	153	1697.1485473532
18	67285616	154	1697.3080311026
18	68396726	155	1697.467021171
18	69540645	156	1697.6018407512
18	70702908	157	1697.7296347935
18	71918890	158	1697.8579629017
18	73161677	159	1697.9850861374
18	74441529	160	1698.1134663122
18	75710189	161	1698.2405631747
18	77006633	162	1698.3677553432
18	78346591	163	1698.4954811847
18	79697438	164	1698.6231650403
18	81070627	165	1698.7517135162
18	82476743	166	1698.8794996953
18	83880595	167	1699.0060815755
18	85272179	168	1699.1346400129
18	86673700	169	1699.26270473
18	88074364	170	1699.3912659464
18	89511974	171	1699.5182738593
18	90988115	172	1699.6464505047
18	92478627	173	1699.7738809362
18	93946129	174	1699.9006359531
18	95423570	175	1700.0271650953
18	96890142	176	1700.1547422428
18	98382092	177	1700.2821552996
18	99862447	178	1700.4094950547
18	101354113	179	1700.5366814798
18	102809281	180	1700.664311477
18	104267844	181	1700.7909234092
18	105725084	182	1700.9005277045
18	107157445	183	1700.9808118567
18	108586075	184	1701.0610960089
18	110027644	185	1701.1210140018
18	111477743	186	1701.0565172294
18	112939715	187	1700.9925037595
18	114396358	188	1700.8530606804
18	115845588	189	1700.3673699452
18	117297455	190	1699.8815605836
18	118713892	191	1698.9165485464
18	120132619	192	1697.8841284122
18	121549449	193	1696.581256819
18	122955511	194	1695.255519066
18	124358890	195	1693.9044068456
18	125760453	196	1692.5612719338
18	127129616	197	1691.198991945
18	128552406	198	1689.8436983088
18	129987348	199	1688.4912752109
18	131426794	200	1687.1446333257
17	70091	12	2417.8722244181
17	113803	13	2417.8722244181
17	182346	14	2417.2743486735
17	267195	15	2416.3833340445
17	360425	16	2415.3413637844
17	454040	17	2414.1901072875
17	559775	18	2412.9867772157
17	672011	19	2411.7617429782
17	784532	20	2410.5136771622
17	894999	21	2409.2443665464
17	1006426	22	2407.982625992
17	1128739	23	2406.9266053968
17	1263703	24	2405.9801964308
17	1399448	25	2405.0290728684
17	1534902	26	2404.0740436263
17	1671668	27	2403.1288630115
17	1818627	28	2402.1785625233
17	1981147	29	2401.2384406377
17	2142582	30	2400.2811153986
17	2301622	31	2399.3308250725
17	2477994	32	2398.3842088612
17	2665391	33	2397.4380316263
17	2851294	34	2396.4906843196
17	3037823	35	2395.5431161794
17	3224833	36	2394.5837468621
17	3428229	37	2393.6286592946
17	3647221	38	2392.6738696665
17	3863400	39	2391.7181489851
17	4074669	40	2390.7710788563
17	4290041	41	2389.8223019775
17	4523064	42	2388.8678449757
17	4767745	43	2387.9320260738
17	5012415	44	2386.9875859002
17	5254273	45	2386.0337149813
17	5493869	46	2385.0817741512
17	5752088	47	2384.1311845904
17	6024997	48	2383.1851830593
17	6295205	49	2382.2325055898
17	6565001	50	2381.2832872532
17	6856567	51	2380.3299429951
17	7157737	52	2379.3827952867
17	7457660	53	2378.4358225974
17	7761350	54	2377.4815152469
17	8072844	55	2376.5285083911
17	8379957	56	2375.5738508886
17	8681997	57	2374.6241024128
17	8987334	58	2373.6734077078
17	9290561	59	2372.7255373249
17	9592266	60	2371.7722929644
17	9898191	61	2370.8224984689
17	10204181	62	2369.8761421476
17	10511018	63	2368.9274665185
17	10821120	64	2367.9752711486
17	11121593	65	2367.0223878245
17	11426185	66	2366.072896853
17	11732169	67	2365.1229144481
17	12045441	68	2364.1764102882
17	12354227	69	2363.2244314332
17	12657412	70	2362.2706598341
17	12962990	71	2361.3201574946
17	13265380	72	2360.3786524954
17	13569356	73	2359.4304861063
17	13874560	74	2358.4769881467
17	14179473	75	2357.5281411612
17	14486016	76	2356.5773368625
17	14786028	77	2355.6246034247
17	15084772	78	2354.6697771666
17	15386357	79	2353.7141985989
17	15685619	80	2352.7575426321
17	15984065	81	2351.8048489406
17	16280235	82	2350.8493748071
17	16575014	83	2349.8956975276
17	16898349	84	2348.941284221
17	17229815	85	2347.996753698
17	17569008	86	2347.0454658759
17	17922152	87	2346.0959213333
17	18281789	88	2345.1485819918
17	18650567	89	2344.2015024733
17	19038057	90	2343.2562297831
17	19441840	91	2342.3939185622
17	19869372	92	2341.5645649324
17	20306342	93	2340.7286648264
17	20768810	94	2339.8874520018
17	21259352	95	2339.0508645881
17	21762959	96	2338.2169925976
17	22285593	97	2337.382953188
17	22822020	98	2336.5509470662
17	23391687	99	2335.7180566159
17	23975219	100	2335.2213443797
17	24552444	101	2334.9992852624
17	25165502	102	2334.7777443258
17	25782599	103	2334.5559300635
17	26448973	104	2334.3329996937
17	27131862	105	2334.1119199153
17	27817532	106	2333.9532629249
17	28523677	107	2333.857895566
17	29255782	108	2333.9459562732
17	29983486	109	2334.1570747569
17	30718103	110	2334.7217244949
17	31486870	111	2335.4467726874
17	32249999	112	2336.3666895021
17	33015920	113	2337.4043084675
17	33791795	114	2338.4523078528
17	34582282	115	2339.5110972147
17	35358767	116	2340.5687747202
17	36127384	117	2341.6174015121
17	36891078	118	2342.6725734134
17	37662529	119	2343.7227066206
17	38427628	120	2344.7692951423
17	39216605	121	2345.7996992527
17	40009732	122	2346.8067563869
17	40809604	123	2347.8072087574
17	41606991	124	2348.817009569
17	42398755	125	2349.8133587964
17	43201307	126	2350.8116153578
17	43991722	127	2351.8165337646
17	44788754	128	2352.8163403474
17	45586315	129	2353.8131558207
17	46387000	130	2354.8171930759
17	47181136	131	2355.8212452614
17	47991624	132	2356.8325051884
17	48799166	133	2357.8374587783
17	49578148	134	2358.8448349774
17	50359024	135	2359.8498911361
17	51142453	136	2360.8532688639
17	51918607	137	2362.0947207852
17	52700267	138	2363.4321124707
17	53469690	139	2364.7714291835
17	54248004	140	2366.1193413557
17	55066819	141	2367.4609534326
17	55900087	142	2368.7924687944
17	56732434	143	2370.11640412
17	57595441	144	2371.458661564
17	58468542	145	2372.7998807637
17	59366511	146	2374.1399610136
17	60289451	147	2375.4857379087
17	61230584	148	2376.82373443
17	62193205	149	2378.1727764432
17	63145664	150	2379.5144853407
17	64149657	151	2380.8599953235
17	65168822	152	2382.2075221813
17	66213637	153	2383.5571701741
17	67285616	154	2384.8971184576
17	68396726	155	2386.2329189427
17	69540645	156	2387.587033935
17	70702908	157	2388.9385412598
17	71918890	158	2390.2956966814
17	73161677	159	2391.640109773
17	74441529	160	2392.9978158402
17	75710189	161	2394.3419500169
17	77006633	162	2395.6870921173
17	78346591	163	2397.0378781673
17	79697438	164	2398.3882201834
17	81070627	165	2399.7477061427
17	82476743	166	2401.0991303032
17	83880595	167	2402.4378182071
17	85272179	168	2403.7974095127
17	86673700	169	2405.151779399
17	88074364	170	2406.511400097
17	89511974	171	2407.854593571
17	90988115	172	2409.2101471761
17	92478627	173	2410.5578090668
17	93946129	174	2411.898328001
17	95423570	175	2413.2364581623
17	96890142	176	2414.5856716705
17	98382092	177	2415.9331498136
17	99862447	178	2417.2798527463
17	101354113	179	2418.6249341086
17	102809281	180	2419.9747065413
17	104267844	181	2421.313712256
17	105725084	182	2422.6771899787
17	107157445	183	2424.0636355316
17	108586075	184	2425.4500810845
17	110027644	185	2426.8301247973
17	111477743	186	2428.1947407222
17	112939715	187	2429.5491309959
17	114396358	188	2430.8855722898
17	115845588	189	2432.1457428454
17	117297455	190	2433.4062211885
17	118713892	191	2434.3223123841
17	120132619	192	2435.2065137858
17	121549449	193	2435.5207639146
17	122955511	194	2435.7913226397
17	124358890	195	2435.8760976038
17	125760453	196	2435.8845793381
17	127129616	197	2435.8931819713
17	128552406	198	2435.9017404865
17	129987348	199	2435.9102808746
17	131426794	200	2435.9187847549
6	452	3	4.1695546184085
6	933	4	4.8304427410518
6	1757	5	6.0777192532467
6	3025	6	7.4439910681832
6	5545	7	8.3528641489679
6	10264	8	2.9302852404392
6	17676	9	1.8608925099174
6	29111	10	1.9942265821232
6	44941	11	0.973
6	70091	12	0.973
6	113803	13	0.973
6	182346	14	0.973
6	267195	15	0.973
6	360425	16	0.973
6	454040	17	0.973
6	559775	18	0.973
6	672011	19	0.973
6	784532	20	0.973
6	894999	21	0.973
6	1006426	22	0.973
6	1128739	23	0.973
6	1263703	24	0.973
6	1399448	25	0.973
6	1534902	26	0.973
6	1671668	27	0.973
6	1818627	28	0.973
6	1981147	29	0.973
6	2142582	30	0.973
6	2301622	31	0.973
6	2477994	32	0.973
6	2665391	33	0.973
6	2851294	34	0.973
6	3037823	35	0.973
6	3224833	36	0.973
6	3428229	37	0.973
6	3647221	38	0.973
6	3863400	39	0.973
6	4074669	40	0.973
6	4290041	41	2.545329698065
6	4523064	42	3.4457477469991
6	4767745	43	4.3800080072216
6	5012415	44	4.87125033336
6	5254273	45	6.1775166336307
6	5493869	46	7.2930350680445
6	5752088	47	8.544674221522
6	6024997	48	2.3276568301543
6	6295205	49	2.0710277907514
6	6565001	50	0.973
6	6856567	51	0.973
6	7157737	52	0.973
6	7457660	53	0.973
6	7761350	54	4.2449731266916
6	8072844	55	4.9290350831268
6	8379957	56	6.9711657705851
6	8681997	57	6.9280922087184
6	8987334	58	7.3646586366114
6	9290561	59	4.2107408676415
6	9592266	60	2.0493488960536
6	9898191	61	2.0506669767476
6	10204181	62	1.7697044793006
6	10511018	63	1.8740332639622
6	10821120	64	2.0882374202118
6	11121593	65	2.3583516829634
6	11426185	66	1.6910984230697
6	11732169	67	2.2690184392196
6	12045441	68	1.8867202259085
6	12354227	69	2.1407087525418
6	12657412	70	1.9451445901371
6	12962990	71	2.2320807887813
6	13265380	72	1.7658967230716
6	13569356	73	1.9853034319846
6	13874560	74	1.9718750092394
6	14179473	75	2.0464873727656
6	14486016	76	2.3665990249525
6	14786028	77	1.8660814099134
6	15084772	78	1.9337417514339
6	15386357	79	2.0317855467718
6	15685619	80	2.2842647817495
6	15984065	81	1.726464895081
6	16280235	82	2.4074916501482
6	16575014	83	1.917549138746
6	16898349	84	1.9861876163265
6	17229815	85	1.837829238423
6	17569008	86	2.2736891420819
6	17922152	87	2.0512136520367
6	18281789	88	1.879104608496
6	18650567	89	2.0139218774864
6	19038057	90	2.2031995204389
6	19441840	91	1.8788277931089
6	19869372	92	2.1947483579149
6	20306342	93	1.9992357175606
6	20768810	94	1.9370250381262
6	21259352	95	1.9564146218179
6	21762959	96	2.1388123189868
6	22285593	97	2.1845989320357
6	22822020	98	1.8554132552171
6	23391687	99	2.128964923448
6	23975219	100	2.0381763974742
6	24552444	101	2.0988967794726
6	25165502	102	1.7314242846583
6	25782599	103	2.1184393038295
6	26448973	104	1.9990332226498
6	27131862	105	0.973
6	27817532	106	0.973
6	28523677	107	0.973
6	29255782	108	0.973
6	29983486	109	5.1144198190963
6	30718103	110	5.7954388186215
6	31486870	111	6.9560747511326
6	32249999	112	8.3582822542752
6	33015920	113	7.0035000608702
6	33791795	114	1.95394229857
6	34582282	115	1.9353911469937
6	35358767	116	2.1018639090637
6	36127384	117	2.0924571101324
6	36891078	118	1.8794868689399
6	37662529	119	2.0937184008035
6	38427628	120	2.0745533774944
6	39216605	121	2.1158319038745
6	40009732	122	1.7938845572577
6	40809604	123	2.1993897569717
6	41606991	124	2.1054022621163
6	42398755	125	1.8393425660922
6	43201307	126	2.1924837342251
6	43991722	127	1.8419794612742
6	44788754	128	2.3221063489042
6	45586315	129	1.7662972915289
6	46387000	130	2.1268435240047
6	47181136	131	2.2230703994927
6	47991624	132	1.9498638601209
6	48799166	133	1.9407345137929
6	49578148	134	2.1344639306322
6	50359024	135	1.9050836993654
6	51142453	136	2.2685460392685
6	51918607	137	1.7410110212912
6	52700267	138	1.9935872973009
6	53469690	139	2.2746192604757
6	54248004	140	1.8335020051979
6	55066819	141	2.1468797138364
6	55900087	142	2.054712376996
6	56732434	143	1.8569060891552
6	57595441	144	2.1770772126083
6	58468542	145	2.1933849141043
6	59366511	146	2.044301409061
6	60289451	147	2.0103258984298
6	61230584	148	1.8847459157373
6	62193205	149	2.2282509867408
6	63145664	150	1.6804488272716
6	64149657	151	2.2941059382854
6	65168822	152	2.1260423961965
6	66213637	153	1.9876867671546
6	67285616	154	1.6629881898677
6	68396726	155	2.3276459837254
6	69540645	156	1.966835642499
6	70702908	157	2.1976142777507
6	71918890	158	1.9217179924892
6	73161677	159	1.8639605869873
6	74441529	160	2.1703674995619
6	75710189	161	1.8177178205062
6	77006633	162	2.4165976313729
6	78346591	163	1.9582550935587
6	79697438	164	2.0778182511657
6	81070627	165	1.6473797192825
6	82476743	166	2.4402933637172
6	83880595	167	1.9165061603635
6	85272179	168	1.790472962898
6	86673700	169	2.4167076344148
[...]
20	51142453	136	-0.0071518792216141
20	51918607	137	-0.0070256781209084
20	52700267	138	-0.0053612695140068
20	53469690	139	0.020454279558676
20	54248004	140	0.041681452019715
20	55066819	141	-0.041369208305395
20	55900087	142	0.044053341037418
20	56732434	143	-0.041960082446997
20	57595441	144	0.017602611364181
20	58468542	145	0.019317574598801
20	59366511	146	-0.03160560864825
20	60289451	147	0.034735391594996
20	61230584	148	-0.018436119750602
20	62193205	149	0.017243207743415
20	63145664	150	-0.020795152003243
20	64149657	151	0.037849857235346
20	65168822	152	-0.084988570145465
20	66213637	153	0.02357962257402
20	67285616	154	0.0076095187154346
20	68396726	155	0.016219032401506
20	69540645	156	-0.017925853980416
20	70702908	157	-0.020700401351033
20	71918890	158	0.038286670646761
20	73161677	159	0.034581990446014
20	74441529	160	-0.040825037541877
20	75710189	161	-0.00032526035732738
20	77006633	162	-0.0073528624933672
20	78346591	163	0.011336437052319
20	79697438	164	0.029871279639895
20	81070627	165	-0.070319959331552
20	82476743	166	0.034781998234561
20	83880595	167	0.032862829732003
20	85272179	168	-0.02875641316745
20	86673700	169	0.0072181658221144
20	88074364	170	-0.031659208414486
20	89511974	171	0.025873411549695
20	90988115	172	0.031283703984949
20	92478627	173	0.028492568061919
20	93946129	174	0.28225236592381
20	95423570	175	-0.38762158890172
20	96890142	176	-0.19426073693804
20	98382092	177	0.18508124503498
20	99862447	178	1.1248951056469
20	101354113	179	1.4444661162687
20	102809281	180	1.7478313708818
20	104267844	181	2.0073380580172
20	105725084	182	1.8833461567666
20	107157445	183	1.98039787455
20	108586075	184	2.0168868680252
20	110027644	185	0.21146263345186
20	111477743	186	0.079000994174104
20	112939715	187	-0.017497811926116
20	114396358	188	0.13836398869336
20	115845588	189	-0.052735964217581
20	117297455	190	0.0081146867154249
20	118713892	191	-0.023755389291836
20	120132619	192	0.0124210610379
20	121549449	193	0.047573438098622
20	122955511	194	0.04720340737158
20	124358890	195	-0.0039034856212634
20	125760453	196	-0.083098114676728
20	127129616	197	0.033583450761114
20	128552406	198	0.075968487082111
20	129987348	199	-0.088021663212254
20	131426794	200	0.066730552701573
19	70091	12	0.98564389594301
19	113803	13	1.2017584153193
19	182346	14	1.2806815396698
19	267195	15	1.3154576650774
19	360425	16	1.3617458402318
19	454040	17	1.3182440034284
19	559775	18	1.3727577782571
19	672011	19	1.3435010994607
19	784532	20	1.3591243418038
19	894999	21	1.3196133091632
19	1006426	22	1.3942048845421
19	1128739	23	1.3535323524102
19	1263703	24	1.3600978134058
19	1399448	25	1.3607341153783
19	1534902	26	1.3229593490015
19	1671668	27	1.3593876667509
19	1818627	28	1.3960591059009
19	1981147	29	1.347261730277
19	2142582	30	1.3267551423349
19	2301622	31	1.3169471935648
19	2477994	32	1.3578162472061
19	2665391	33	1.3816640412736
19	2851294	34	1.332162414793
19	3037823	35	1.3122539284631
19	3224833	36	1.3814237710172
19	3428229	37	1.375057570118
19	3647221	38	1.3520231995742
19	3863400	39	1.3678561609497
19	4074669	40	1.3162631089605
19	4290041	41	1.3066249686603
19	4523064	42	1.3636463543101
19	4767745	43	1.3651529917917
19	5012415	44	1.3741727545274
19	5254273	45	1.3787232426905
19	5493869	46	1.353109279601
19	5752088	47	1.3324503587908
19	6024997	48	1.3829950820693
19	6295205	49	1.327469714164
19	6565001	50	1.3765809574063
19	6856567	51	1.318096356951
19	7157737	52	1.343682238207
19	7457660	53	1.3238067660373
19	7761350	54	1.397208589639
19	8072844	55	1.3332454718401
19	8379957	56	1.3368296461289
19	8681997	57	1.3733248870336
19	8987334	58	1.3585615066333
19	9290561	59	1.32224014244
19	9592266	60	1.340077102726
19	9898191	61	1.3301510387568
19	10204181	62	1.336325023429
19	10511018	63	1.3378018020977
19	10821120	64	1.3517340151477
19	11121593	65	1.3674994995914
19	11426185	66	1.3718778404906
19	11732169	67	1.3274751182742
19	12045441	68	1.3648120612484
19	12354227	69	1.3226606766488
19	12657412	70	1.371944386781
19	12962990	71	1.3586521942831
19	13265380	72	1.3592916154012
19	13569356	73	1.3647950622323
19	13874560	74	1.3674777294814
19	14179473	75	1.3391229857032
19	14486016	76	1.3397035519955
19	14786028	77	1.3346691257448
19	15084772	78	1.3259214917093
19	15386357	79	1.3377516207426
19	15685619	80	1.3507496635066
19	15984065	81	1.3783980820352
19	16280235	82	1.3742588187045
19	16575014	83	1.3598561374507
19	16898349	84	1.3451390032597
19	17229815	85	1.3359985770516
19	17569008	86	1.3596030065315
19	17922152	87	1.3621359199991
19	18281789	88	1.3476937677579
19	18650567	89	1.3602294216778
19	19038057	90	1.365031053821
19	19441840	91	1.3677130511448
19	19869372	92	1.3116625265525
19	20306342	93	1.3696749838972
19	20768810	94	1.3226334552474
19	21259352	95	1.3399933585474
19	21762959	96	1.3688553814944
19	22285593	97	1.3574883760524
19	22822020	98	1.3694028732939
19	23391687	99	1.3525431469411
19	23975219	100	1.3357093741377
19	24552444	101	1.326802963294
19	25165502	102	1.344797934032
19	25782599	103	1.3966448313684
19	26448973	104	1.3665194461125
19	27131862	105	1.3240063027968
19	27817532	106	1.3188333047999
19	28523677	107	1.3769877024757
19	29255782	108	1.3507904574739
19	29983486	109	1.3688700958826
19	30718103	110	1.3401078160725
19	31486870	111	1.3375110481872
19	32249999	112	1.34694069001
19	33015920	113	1.3992750530507
19	33791795	114	1.3415116829035
19	34582282	115	1.3449661526048
19	35358767	116	1.3671176539355
19	36127384	117	1.3760742159357
19	36891078	118	1.3716427820812
19	37662529	119	1.3237565529428
19	38427628	120	1.3323489241911
19	39216605	121	1.3478488116113
19	40009732	122	1.3555560722344
19	40809604	123	1.3286674056725
19	41606991	124	1.383051544669
19	42398755	125	1.3605990274698
19	43201307	126	1.3578566813698
19	43991722	127	1.3532525016739
19	44788754	128	1.366781522033
19	45586315	129	1.3829879745136
19	46387000	130	1.334727334708
19	47181136	131	1.3654268120219
19	47991624	132	1.3388877539464
19	48799166	133	1.3708763832191
19	49578148	134	1.341943020982
19	50359024	135	1.3380154606466
19	51142453	136	1.330863581425
19	51918607	137	1.323837903304
19	52700267	138	1.31847663379
19	53469690	139	1.3389309133487
19	54248004	140	1.3806123653684
19	55066819	141	1.339243157063
19	55900087	142	1.3832964981005
19	56732434	143	1.3413364156535
19	57595441	144	1.3589390270176
19	58468542	145	1.3782566016164
19	59366511	146	1.3466509929682
19	60289451	147	1.3813863845632
19	61230584	148	1.3629502648126
19	62193205	149	1.380193472556
19	63145664	150	1.3593983205528
19	64149657	151	1.3972481777881
19	65168822	152	1.3122596076426
19	66213637	153	1.3358392302167
19	67285616	154	1.3434487489321
19	68396726	155	1.3596677813336
19	69540645	156	1.3417419273532
19	70702908	157	1.3210415260022
19	71918890	158	1.3593281966489
19	73161677	159	1.3939101870949
19	74441529	160	1.353085149553
19	75710189	161	1.3527598891957
19	77006633	162	1.3454070267024
19	78346591	163	1.3567434637547
19	79697438	164	1.3866147433946
19	81070627	165	1.316294784063
19	82476743	166	1.3510767822976
19	83880595	167	1.3839396120296
19	85272179	168	1.3551831988621
19	86673700	169	1.3624013646842
19	88074364	170	1.3307421562698
19	89511974	171	1.3566155678195
19	90988115	172	1.3878992718044
19	92478627	173	1.4163918398663
19	93946129	174	1.6986442057901
19	95423570	175	1.3110226168884
19	96890142	176	1.1167618799504
19	98382092	177	1.3018431249854
19	99862447	178	2.4267382306322
19	101354113	179	3.8712043469009
19	102809281	180	5.6190357177827
19	104267844	181	7.6263737757999
19	105725084	182	9.5097199325665
19	107157445	183	11.490117807116
19	108586075	184	13.507004675142
19	110027644	185	13.718467308594
19	111477743	186	13.797468302768
19	112939715	187	13.779970490842
19	114396358	188	13.918334479535
19	115845588	189	13.865598515317
19	117297455	190	13.873713202033
19	118713892	191	13.849957812741
19	120132619	192	13.862378873779
19	121549449	193	13.909952311877
19	122955511	194	13.957155719249
19	124358890	195	13.953252233628
19	125760453	196	13.870154118951
19	127129616	197	13.903737569712
19	128552406	198	13.979706056794
19	129987348	199	13.891684393582
19	131426794	200	13.958414946284
16	44941	11	1578.1626726352
16	70091	12	1578.1626726352
16	113803	13	1578.43936978
16	182346	14	1578.8278054055
16	267195	15	1579.2596165901
16	360425	16	1579.7106796093
16	454040	17	1580.1709810933
16	559775	18	1580.6349642538
16	672011	19	1581.1019935403
16	784532	20	1582.037461265
16	894999	21	1583.0014477475
16	1006426	22	1583.959111263
16	1128739	23	1584.9283644697
16	1263703	24	1585.890858789
16	1399448	25	1586.8511172635
16	1534902	26	1587.811673956
16	1671668	27	1588.7718229424
16	1818627	28	1589.7386771739
16	1981147	29	1590.7094246624
16	2142582	30	1591.6824994059
16	2301622	31	1592.6441067746
16	2477994	32	1593.6081311181
16	2665391	33	1594.5751027754
16	2851294	34	1595.5341960043
16	3037823	35	1596.4951502839
16	3224833	36	1597.4597086832
16	3428229	37	1598.4183017677
16	3647221	38	1599.3787830602
16	3863400	39	1600.3483041935
16	4074669	40	1601.3092761664
16	4290041	41	1602.264620536
16	4523064	42	1603.2226449056
16	4767745	43	1604.180176531
16	5012415	44	1605.1415443067
16	5254273	45	1606.1035381714
16	5493869	46	1607.0666280035
16	5752088	47	1608.0264628269
16	6024997	48	1608.9896279247
16	6295205	49	1609.947122979
16	6565001	50	1610.9027547305
16	6856567	51	1611.8772919234
16	7157737	52	1612.8281267928
16	7457660	53	1613.7940533478
16	7761350	54	1614.7616126379
16	8072844	55	1615.7262563054
16	8379957	56	1616.6873741308
16	8681997	57	1617.653051205
16	8987334	58	1618.6165619148
16	9290561	59	1619.5719786268
16	9592266	60	1620.5325144371
16	9898191	61	1621.5006516017
16	10204181	62	1622.4647160778
16	10511018	63	1623.4223373085
16	10821120	64	1624.3827295098
16	11121593	65	1625.3490920663
16	11426185	66	1626.3146255119
16	11732169	67	1627.2813343452
16	12045441	68	1628.2469854401
16	12354227	69	1629.2073477712
16	12657412	70	1630.1651784042
16	12962990	71	1631.1359798964
16	13265380	72	1632.1076534297
16	13569356	73	1633.0622914005
16	13874560	74	1634.0209560748
16	14179473	75	1634.9845309192
16	14486016	76	1635.9566442538
16	14786028	77	1636.9234923935
16	15084772	78	1637.8798177801
16	15386357	79	1638.8479686035
16	15685619	80	1639.8049805025
16	15984065	81	1640.765686024
16	16280235	82	1641.733425173
16	16575014	83	1642.6984955948
16	16898349	84	1643.6600385616
16	17229815	85	1644.6157008447
16	17569008	86	1645.5809917077
16	17922152	87	1646.5459122909
16	18281789	88	1647.6096703885
16	18650567	89	1648.6737073539
16	19038057	90	1649.7462766934
16	19441840	91	1650.8192344941
16	19869372	92	1651.8916279627
16	20306342	93	1652.9475031942
16	20768810	94	1654.0150455134
16	21259352	95	1655.0825375644
16	21762959	96	1656.1546665002
16	22285593	97	1657.4265095675
16	22822020	98	1658.7703586761
16	23391687	99	1660.1109072845
16	23975219	100	1661.4465147862
16	24552444	101	1662.7766532721
16	25165502	102	1664.0980876721
16	25782599	103	1665.4467061376
16	26448973	104	1666.8001528094
16	27131862	105	1668.1412218325
16	27817532	106	1669.4506853344
16	28523677	107	1670.6729889894
16	29255782	108	1671.7390237339
16	29983486	109	1672.7124130363
16	30718103	110	1673.570763764
16	31486870	111	1674.4171043327
16	32249999	112	1675.2690464798
16	33015920	113	1676.120634865
16	33791795	114	1676.9719646377
16	34582282	115	1677.8219699953
16	35358767	116	1678.6806316487
16	36127384	117	1679.5303279851
16	36891078	118	1680.4278612733
16	37662529	119	1681.3441058611
16	38427628	120	1682.2482543774
16	39216605	121	1683.1494873296
16	40009732	122	1684.0520434994
16	40809604	123	1684.9599364875
16	41606991	124	1685.8606885048
16	42398755	125	1686.7658978449
16	43201307	126	1687.6748032821
16	43991722	127	1688.5804324178
16	44788754	128	1689.4846112067
16	45586315	129	1690.3921047179
16	46387000	130	1691.303416742
16	47181136	131	1692.2106518289
16	47991624	132	1693.120674816
16	48799166	133	1693.9979380155
16	49578148	134	1694.1989170695
16	50359024	135	1694.4003626583
16	51142453	136	1694.6001630807
16	51918607	137	1694.8001927063
16	52700267	138	1695.0004104292
16	53469690	139	1695.2014473267
16	54248004	140	1695.3999808859
16	55066819	141	1695.6005062629
16	55900087	142	1695.799685928
16	56732434	143	1696.0017242972
16	57595441	144	1696.2024549171
16	58468542	145	1696.3975391202
16	59366511	146	1696.5577240521
16	60289451	147	1696.7175596012
16	61230584	148	1696.8780683819
16	62193205	149	1697.0390134482
16	63145664	150	1697.1989364754
16	64149657	151	1697.3590781819
16	65168822	152	1697.5160295703
16	66213637	153	1697.6438481901
16	67285616	154	1697.770701699
16	68396726	155	1697.898407178
16	69540645	156	1698.0254295589
16	70702908	157	1698.1520357728
16	71918890	158	1698.2791851424
16	73161677	159	1698.407175662
16	74441529	160	1698.5364030302
16	75710189	161	1698.6636704952
16	77006633	162	1698.7913313229
16	78346591	163	1698.9181254562
16	79697438	164	1699.0460464852
16	81070627	165	1699.1733566783
16	82476743	166	1699.3001117408
16	83880595	167	1699.4273531577
16	85272179	168	1699.5542952027
16	86673700	169	1699.6827282337
16	88074364	170	1699.8105200473
16	89511974	171	1699.9381718542
16	90988115	172	1700.0671241572
16	92478627	173	1700.1967312265
16	93946129	174	1700.3267688518
16	95423570	175	1700.4855430033
16	96890142	176	1700.6249010116
16	98382092	177	1700.7328849304
16	99862447	178	1700.848242213
16	101354113	179	1700.9602723373
16	102809281	180	1701.1572819501
16	104267844	181	1703.6490878826
16	105725084	182	1710.29846517
16	107157445	183	1718.8223184031
16	108586075	184	1729.2972219279
16	110027644	185	1741.7791362945
16	111477743	186	1755.2985116467
16	112939715	187	1768.9762227731
16	114396358	188	1782.7051547077
16	115845588	189	1796.485425978
16	117297455	190	1810.2842217367
16	118713892	191	1824.0884113619
16	120132619	192	1837.9276650827
16	121549449	193	1851.7568992348
16	122955511	194	1865.622477184
16	124358890	195	1879.496519587
16	125760453	196	1893.3883132692
16	127129616	197	1907.2563575916
16	128552406	198	1921.1128587676
16	129987348	199	1934.9884358179
16	131426794	200	1948.8491945388
15	44941	11	2415.6610717325
15	70091	12	2415.6610717325
15	113803	13	2414.907528492
15	182346	14	2413.8496822334
15	267195	15	2412.6737091349
15	360425	16	2411.4453065458
15	454040	17	2410.191744384
15	559775	18	2408.928155724
15	672011	19	2407.6562713998
15	784532	20	2406.6840624934
15	894999	21	2405.7323175776
15	1006426	22	2404.7868153334
15	1128739	23	2403.8298705749
15	1263703	24	2402.8795988729
15	1399448	25	2401.9315346235
15	1534902	26	2400.9831759423
15	1671668	27	2400.0352197905
15	1818627	28	2399.080643543
15	1981147	29	2398.1222234779
15	2142582	30	2397.1615057122
15	2301622	31	2396.2121096979
15	2477994	32	2395.2603274017
15	2665391	33	2394.3056352192
15	2851294	34	2393.3587214173
15	3037823	35	2392.409970199
15	3224833	36	2391.4576606288
15	3428229	37	2390.5112406198
15	3647221	38	2389.5629563823
15	3863400	39	2388.605747099
15	4074669	40	2387.6569784119
15	4290041	41	2386.713765863
15	4523064	42	2385.767907348
15	4767745	43	2384.8225353191
15	5012415	44	2383.873375855
15	5254273	45	2382.9235982532
15	5493869	46	2381.972738601
15	5752088	47	2381.0250926221
15	6024997	48	2380.0741586599
15	6295205	49	2379.1288227382
15	6565001	50	2378.185326457
15	6856567	51	2377.223164813
15	7157737	52	2376.2844044993
15	7457660	53	2375.3307441472
15	7761350	54	2374.3754717946
15	8072844	55	2373.4230780392
15	8379957	56	2372.4741653509
15	8681997	57	2371.520751312
15	8987334	58	2370.5694761267
15	9290561	59	2369.6261921547
15	9592266	60	2368.677854091
15	9898191	61	2367.722011202
15	10204181	62	2366.7701892825
15	10511018	63	2365.8247287862
15	10821120	64	2364.8765325079
15	11121593	65	2363.9224416915
15	11426185	66	2362.9691694573
15	11732169	67	2362.0147367613
15	12045441	68	2361.0613483718
15	12354227	69	2360.1131815838
15	12657412	70	2359.1675143448
15	12962990	71	2358.2090409626
15	13265380	72	2357.2497066128
15	13569356	73	2356.3071914925
15	13874560	74	2355.3607008037
15	14179473	75	2354.4093622982
15	14486016	76	2353.4495937316
15	14786028	77	2352.4950234987
15	15084772	78	2351.5508423907
15	15386357	79	2350.5949860165
15	15685619	80	2349.650127114
15	15984065	81	2348.7016214945
15	16280235	82	2347.7461715664
15	16575014	83	2346.793356476
15	16898349	84	2345.8440240457
15	17229815	85	2344.9004976206
15	17569008	86	2343.9474648881
15	17922152	87	2343.0063238339
15	18281789	88	2342.1753638611
15	18650567	89	2341.3441860494
15	19038057	90	2340.5063431306
15	19441840	91	2339.6681967634
15	19869372	92	2338.8304912267
15	20306342	93	2338.0056889947
15	20768810	94	2337.1717729582
15	21259352	95	2336.3378961884
15	21762959	96	2335.5003972937
15	22285593	97	2335.1629091921
15	22822020	98	2334.939766961
15	23391687	99	2334.7171727682
15	23975219	100	2334.4953990319
15	24552444	101	2334.2745334097
15	25165502	102	2334.0551130755
15	25782599	103	2333.928232508
15	26448973	104	2333.8326950959
15	27131862	105	2334.0030755141
15	27817532	106	2334.292285529
15	28523677	107	2334.8723715087
15	29255782	108	2335.6812363239
15	29983486	109	2336.6168178442
15	30718103	110	2337.6797117247
15	31486870	111	2338.7277334497
15	32249999	112	2339.7826915978
15	33015920	113	2340.8372116834
15	33791795	114	2341.8914115299
15	34582282	115	2342.9439713554
15	35358767	116	2344.0072502546
15	36127384	117	2345.0594274198
15	36891078	118	2346.0714525917
15	37662529	119	2347.0874418798
15	38427628	120	2348.0900182874
15	39216605	121	2349.0893617355
15	40009732	122	2350.0901724496
15	40809604	123	2351.0969009615
15	41606991	124	2352.0957111191
15	42398755	125	2353.0994638349
15	43201307	126	2354.1073150142
15	43991722	127	2355.1115332248
15	44788754	128	2356.1141432016
15	45586315	129	2357.1204287488
15	46387000	130	2358.1309485018
15	47181136	131	2359.1369474918
15	47991624	132	2360.1460378806
15	48799166	133	2361.1631083102
15	49578148	134	2362.5077338679
15	50359024	135	2363.8554807112
15	51142453	136	2365.1922207752
15	51918607	137	2366.5304942993
15	52700267	138	2367.870026262
15	53469690	139	2369.2150388086
15	54248004	140	2370.5433030793
15	55066819	141	2371.8848933643
15	55900087	142	2373.2174803277
15	56732434	143	2374.5691931038
15	57595441	144	2375.91215654
15	58468542	145	2377.2473599282
15	59366511	146	2378.5931994008
15	60289451	147	2379.9361034319
15	61230584	148	2381.2846638152
15	62193205	149	2382.6368897735
15	63145664	150	2383.9805287782
15	64149657	151	2385.3260050819
15	65168822	152	2386.6795234028
15	66213637	153	2388.0312906508
15	67285616	154	2389.3728512025
15	68396726	155	2390.7234219034
15	69540645	156	2392.066768393
15	70702908	157	2393.4057136322
15	71918890	158	2394.7504031061
15	73161677	159	2396.1039883023
15	74441529	160	2397.470654007
15	75710189	161	2398.8165924177
15	77006633	162	2400.1666909008
15	78346591	163	2401.5076235211
15	79697438	164	2402.8604738057
15	81070627	165	2404.2068641031
15	82476743	166	2405.5473835162
15	83880595	167	2406.8930464452
15	85272179	168	2408.2355433286
15	86673700	169	2409.5938083869
15	88074364	170	2410.9452921292
15	89511974	171	2412.2952952202
15	90988115	172	2413.6590519121
15	92478627	173	2415.0297332063
15	93946129	174	2416.4049679114
15	95423570	175	2418.0841105722
15	96890142	176	2419.5579145516
15	98382092	177	2420.6999165891
15	99862447	178	2421.9198968747
15	101354113	179	2423.70893383
15	102809281	180	2426.8068396177
15	104267844	181	2430.4984639606
15	105725084	182	2431.5919431939
15	107157445	183	2432.8872615215
15	108586075	184	2434.4790691403
15	110027644	185	2436.3758700358
15	111477743	186	2438.2365389956
15	112939715	187	2439.0914142622
15	114396358	188	2440.0626219821
15	115845588	189	2441.064679819
15	117297455	190	2442.0680846983
15	118713892	191	2443.0718818025
15	120132619	192	2444.0782286571
15	121549449	193	2445.0838469203
15	122955511	194	2446.0921079897
15	124358890	195	2447.1009845675
15	125760453	196	2448.1111519623
15	127129616	197	2449.1195923786
15	128552406	198	2450.1271934137
15	129987348	199	2450.1353402105
15	131426794	200	2449.0248181018

