version 2
run CCH_SCH_Safety_B_100Bytes_Q_1-0-20181008-00:26:06-29040
attr configname CCH_SCH_Safety_B_100Bytes_Q_1
attr datetime 20181008-00:26:06
attr experiment CCH_SCH_Safety_B_100Bytes_Q_1
attr inifile omnetpp.ini
attr iterationvars $0=1
attr iterationvarsf 1-
attr measurement $0=1
attr network vanets.RSUScenario
attr processid 29040
attr repetition 0
attr replication #0
attr resultdir results
attr runnumber 0
attr seedset 0
param **.debug false
param **.coreDebug false
param *.annotations.draw false
param *.rsu[*].appl.beaconLengthBits 800bit
param *.node[*].appl.beaconLengthBits 800bit
param *.metricsApplication.appl.beaconLengthBits 800bit
param *.node[*].appl.sendBeacons true
param *.rsu[*].appl.sendBeacons false
param *.metricsApplicaiton[*].appl.sendBeacons false
param *.node[*].appl.dataOnSch true
param *.rsu[*].appl.dataOnSch false
param *.metricsApplication[*].appl.dataOnSch false
param *.node[*].appl.sendData true
param *.rsu[*].appl.sendData true
param *.metricsApplication[*].appl.sendData false
param *.node[*].appl.beaconInterval 0.1s
param *.rsu[*].appl.beaconInterval 0.1s
param *.metricsApplication[*].appl.beaconInterval 0.1s
param *.node[*].appl.beaconPriority 3
param *.rsu[*].appl.beaconPriority 3
param *.metricsApplication[*].appl.beaconPriority 3
param *.node[*].appl.dataPriority 2
param *.rsu[*].appl.dataPriority 2
param *.metricsApplication.appl.beaconPriority 2
param *.**.nic.mac1609_4.queueSize 1
param *.**.nic.mac1609_4.useServiceChannel true
param *.manager.launchConfig "xmldoc(\"erlangen.launchd.xml\")"
param **.debug false
param **.coreDebug false
param *.playgroundSizeX 2500m
param *.playgroundSizeY 2500m
param *.playgroundSizeZ 50m
param *.annotations.draw false
param *.obstacles.debug false
param *.obstacles.obstacles "xmldoc(\"config.xml\", \"//AnalogueModel[@type='SimpleObstacleShadowing']/obstacles\")"
param *.world.useTorus false
param *.world.use2D false
param *.manager.updateInterval 1s
param *.manager.host "\"localhost\""
param *.manager.port 9999
param *.manager.autoShutdown true
param *.manager.launchConfig "xmldoc(\"erlangen.launchd.xml\")"
param *.manager.moduleType "\"vanets.CarWithMetrics\""
param *.manager.moduleName "\"node\""
param *.manager.moduleDisplayString "\"\""
param *.manager.margin 25
param *.manager.numVehicles 5
param *.manager.debug true
param *.rsu[0].mobility.x 2000
param *.rsu[0].mobility.y 2000
param *.rsu[0].mobility.z 3
param *.rsu[*].applType "\"TraCIDemoRSU11p\""
param *.rsu[*].appl.headerLength "80 bit"
param *.rsu[*].appl.sendBeacons false
param *.rsu[*].appl.dataOnSch false
param *.rsu[*].appl.beaconInterval 1s
param *.rsu[*].appl.beaconUserPriority 7
param *.rsu[*].appl.dataUserPriority 5
param *.metricsApplication.applType "\"TraCIDemoRSU11p\""
param *.metricsApplication.appl.debug false
param *.metricsApplication.appl.headerLength "80 bit"
param *.metricsApplication.appl.sendBeacons false
param *.metricsApplication.appl.dataOnSch false
param *.metricsApplication.appl.beaconInterval 1s
param *.metricsApplication.appl.beaconUserPriority 7
param *.metricsApplication.appl.dataUserPriority 2
param *.connectionManager.sendDirect true
param *.connectionManager.maxInterfDist 2600m
param *.connectionManager.drawMaxIntfDist false
param *.**.nic.mac1609_4.useServiceChannel false
param *.**.nic.mac1609_4.txPower 100mW
param *.**.nic.mac1609_4.bitrate 6Mbps
param *.**.nic.phy80211p.sensitivity -89dBm
param *.**.nic.mac1609_4.queueSize 1
param *.**.nic.phy80211p.useThermalNoise true
param *.**.nic.phy80211p.thermalNoise -110dBm
param *.**.nic.phy80211p.decider "xmldoc(\"config.xml\", \"/root/Decider[@type='Decider80211p']\")"
param *.**.nic.phy80211p.decider.collectCollisionStats true
param *.**.nic.phy80211p.analogueModels "xmldoc(\"config.xml\")"
param *.**.nic.phy80211p.usePropagationDelay true
param *.**.nic.phy80211p.collectCollisionStatistics true
param *.**.nic.phy80211p.antenna "xmldoc(\"antenna.xml\", \"/root/Antenna[@id='monopole']\")"
param *.node[*].applType "\"TraCIDemo11p\""
param *.node[*].appl.headerLength "80 bit"
param *.node[*].appl.sendBeacons false
param *.node[*].appl.dataOnSch false
param *.node[*].appl.beaconInterval 1s
param *.node[*].veinsmobilityType.debug true
param *.node[*].veinsmobility.x 0
param *.node[*].veinsmobility.y 0
param *.node[*].veinsmobility.z 1.895
param *.node[*0].veinsmobility.accidentCount 1
param *.node[*0].veinsmobility.accidentStart 10s
param *.node[*0].veinsmobility.accidentDuration 30s

scalar RSUScenario.node[1].appl generatedWSMs 1
scalar RSUScenario.node[1].appl receivedWSMs 46
scalar RSUScenario.node[1].appl generatedBSMs 1969
scalar RSUScenario.node[1].appl receivedBSMs 37814
scalar RSUScenario.node[1].appl generatedWSAs 3
scalar RSUScenario.node[1].appl receivedWSAs 98
scalar RSUScenario.node[1].appl beaconInterval 0.1
scalar RSUScenario.node[1].nic.phy80211p busyTime 0.036993705583782
scalar RSUScenario.node[1].nic.phy80211p ncollisions 2
scalar RSUScenario.node[1].nic.mac1609_4 throughputMetricMac 189.83733832195
scalar RSUScenario.node[1].nic.mac1609_4 throughputMbps 0.16671629279911
scalar RSUScenario.node[1].nic.mac1609_4 throughputControlMbps 0
scalar RSUScenario.node[1].nic.mac1609_4 receivedFramesLowerMsg 37958
scalar RSUScenario.node[1].nic.mac1609_4 receivedBitsLowerPackets 0
scalar RSUScenario.node[1].nic.mac1609_4 receivedBitsLoserWsm 0
scalar RSUScenario.node[1].nic.mac1609_4 packetsNotForMe 0
scalar RSUScenario.node[1].nic.mac1609_4 receivedTotalBits 33334944
scalar RSUScenario.node[1].nic.mac1609_4 collisionsPktNonDecoded 0
scalar RSUScenario.node[1].nic.mac1609_4 chUtilizationCCH 0.380212
scalar RSUScenario.node[1].nic.mac1609_4 chUtilizationSCH1 0
scalar RSUScenario.node[1].nic.mac1609_4 chUtilizationSCH2 0
scalar RSUScenario.node[1].nic.mac1609_4 chUtilizationSCH3 0.000233
scalar RSUScenario.node[1].nic.mac1609_4 chUtilizationSCH4 0
scalar RSUScenario.node[1].nic.mac1609_4 chUtilizationHPPS 0
scalar RSUScenario.node[1].nic.mac1609_4 chUtilizationCRIT_SOL 0
scalar RSUScenario.node[1].nic.mac1609_4 previousSignalQualityCCH 100
scalar RSUScenario.node[1].nic.mac1609_4 previousSignalQualitySCH1 0
scalar RSUScenario.node[1].nic.mac1609_4 previousSignalQualitySCH2 0
scalar RSUScenario.node[1].nic.mac1609_4 previousSignalQualitySCH3 100
scalar RSUScenario.node[1].nic.mac1609_4 previousSignalQualitySCH4 0
scalar RSUScenario.node[1].nic.mac1609_4 chPacketsCCH 1972
scalar RSUScenario.node[1].nic.mac1609_4 chPacketsSCH1 0
scalar RSUScenario.node[1].nic.mac1609_4 chPacketsSCH2 0
scalar RSUScenario.node[1].nic.mac1609_4 chPacketsSCH3 1
scalar RSUScenario.node[1].nic.mac1609_4 chPacketsSCH4 0
scalar RSUScenario.node[1].nic.mac1609_4 ReceivedUnicastPackets 0
scalar RSUScenario.node[1].nic.mac1609_4 ReceivedBroadcasts 37958
scalar RSUScenario.node[1].nic.mac1609_4 SentPackets 1973
scalar RSUScenario.node[1].nic.mac1609_4 SentAcknowledgements 0
scalar RSUScenario.node[1].nic.mac1609_4 SNIRLostPackets 54
scalar RSUScenario.node[1].nic.mac1609_4 RXTXLostPackets 0
scalar RSUScenario.node[1].nic.mac1609_4 TotalLostPackets 54
scalar RSUScenario.node[1].nic.mac1609_4 DroppedPacketsInMac 0
scalar RSUScenario.node[1].nic.mac1609_4 TooLittleTime 0
scalar RSUScenario.node[1].nic.mac1609_4 TimesIntoBackoff 1973
scalar RSUScenario.node[1].nic.mac1609_4 SlotsBackoff 3012
scalar RSUScenario.node[1].nic.mac1609_4 NumInternalContention 0
scalar RSUScenario.node[1].nic.mac1609_4 totalBusyTime 11.676641125573
scalar RSUScenario.node[1].nic.mac1609_4 throughputMetricMac:last 189.83733832195
attr source throughputSignalMac
attr title "throughputMetricMac, last"
scalar RSUScenario.node[1].nic.mac1609_4 throughputMetricMac:count 37958
attr source throughputSignalMac
attr title "throughputMetricMac, count"
scalar RSUScenario.node[1].nic.mac1609_4 throughputMetricMac:sum 4841578.1792357
attr source throughputSignalMac
attr title "throughputMetricMac, sum"
scalar RSUScenario.node[1].nic.mac1609_4 throughputMetricMac:mean 127.5509294282
attr source throughputSignalMac
attr title "throughputMetricMac, mean"
scalar RSUScenario.node[1].veinsmobility startTime 3000
scalar RSUScenario.node[1].veinsmobility totalTime 197000
scalar RSUScenario.node[1].veinsmobility stopTime 200000
scalar RSUScenario.node[1].veinsmobility minSpeed 1.3195987516439
scalar RSUScenario.node[1].veinsmobility maxSpeed 1.3888888888889
scalar RSUScenario.node[1].veinsmobility totalDistance 266.75224284019
scalar RSUScenario.node[1].veinsmobility totalCO2Emission 230.42600343821
scalar RSUScenario.node[4].appl generatedWSMs 1
scalar RSUScenario.node[4].appl receivedWSMs 46
scalar RSUScenario.node[4].appl generatedBSMs 1879
scalar RSUScenario.node[4].appl receivedBSMs 37707
scalar RSUScenario.node[4].appl generatedWSAs 3
scalar RSUScenario.node[4].appl receivedWSAs 98
scalar RSUScenario.node[4].appl beaconInterval 0.1
scalar RSUScenario.node[4].nic.phy80211p busyTime 0.038645191489389
scalar RSUScenario.node[4].nic.phy80211p ncollisions 2
scalar RSUScenario.node[4].nic.mac1609_4 throughputMetricMac 189.30220491893
scalar RSUScenario.node[4].nic.mac1609_4 throughputMbps 0.16624537540437
scalar RSUScenario.node[4].nic.mac1609_4 throughputControlMbps 0
scalar RSUScenario.node[4].nic.mac1609_4 receivedFramesLowerMsg 37851
scalar RSUScenario.node[4].nic.mac1609_4 receivedBitsLowerPackets 0
scalar RSUScenario.node[4].nic.mac1609_4 receivedBitsLoserWsm 0
scalar RSUScenario.node[4].nic.mac1609_4 packetsNotForMe 0
scalar RSUScenario.node[4].nic.mac1609_4 receivedTotalBits 33240784
scalar RSUScenario.node[4].nic.mac1609_4 collisionsPktNonDecoded 0
scalar RSUScenario.node[4].nic.mac1609_4 chUtilizationCCH 0.362842
scalar RSUScenario.node[4].nic.mac1609_4 chUtilizationSCH1 0
scalar RSUScenario.node[4].nic.mac1609_4 chUtilizationSCH2 0
scalar RSUScenario.node[4].nic.mac1609_4 chUtilizationSCH3 0.000233
scalar RSUScenario.node[4].nic.mac1609_4 chUtilizationSCH4 0
scalar RSUScenario.node[4].nic.mac1609_4 chUtilizationHPPS 0
scalar RSUScenario.node[4].nic.mac1609_4 chUtilizationCRIT_SOL 0
scalar RSUScenario.node[4].nic.mac1609_4 previousSignalQualityCCH 100
scalar RSUScenario.node[4].nic.mac1609_4 previousSignalQualitySCH1 0
scalar RSUScenario.node[4].nic.mac1609_4 previousSignalQualitySCH2 0
scalar RSUScenario.node[4].nic.mac1609_4 previousSignalQualitySCH3 100
scalar RSUScenario.node[4].nic.mac1609_4 previousSignalQualitySCH4 0
scalar RSUScenario.node[4].nic.mac1609_4 chPacketsCCH 1882
scalar RSUScenario.node[4].nic.mac1609_4 chPacketsSCH1 0
scalar RSUScenario.node[4].nic.mac1609_4 chPacketsSCH2 0
scalar RSUScenario.node[4].nic.mac1609_4 chPacketsSCH3 0
scalar RSUScenario.node[4].nic.mac1609_4 chPacketsSCH4 0
scalar RSUScenario.node[4].nic.mac1609_4 ReceivedUnicastPackets 0
scalar RSUScenario.node[4].nic.mac1609_4 ReceivedBroadcasts 37851
scalar RSUScenario.node[4].nic.mac1609_4 SentPackets 1883
scalar RSUScenario.node[4].nic.mac1609_4 SentAcknowledgements 0
scalar RSUScenario.node[4].nic.mac1609_4 SNIRLostPackets 44
scalar RSUScenario.node[4].nic.mac1609_4 RXTXLostPackets 0
scalar RSUScenario.node[4].nic.mac1609_4 TotalLostPackets 44
scalar RSUScenario.node[4].nic.mac1609_4 DroppedPacketsInMac 0
scalar RSUScenario.node[4].nic.mac1609_4 TooLittleTime 0
scalar RSUScenario.node[4].nic.mac1609_4 TimesIntoBackoff 1884
scalar RSUScenario.node[4].nic.mac1609_4 SlotsBackoff 2888
scalar RSUScenario.node[4].nic.mac1609_4 NumInternalContention 0
scalar RSUScenario.node[4].nic.mac1609_4 totalBusyTime 10.558643472991
scalar RSUScenario.node[4].nic.mac1609_4 throughputMetricMac:last 189.30220491893
attr source throughputSignalMac
attr title "throughputMetricMac, last"
scalar RSUScenario.node[4].nic.mac1609_4 throughputMetricMac:count 37851
attr source throughputSignalMac
attr title "throughputMetricMac, count"
scalar RSUScenario.node[4].nic.mac1609_4 throughputMetricMac:sum 4795937.55325
attr source throughputSignalMac
attr title "throughputMetricMac, sum"
scalar RSUScenario.node[4].nic.mac1609_4 throughputMetricMac:mean 126.70570270931
attr source throughputSignalMac
attr title "throughputMetricMac, mean"
scalar RSUScenario.node[4].veinsmobility startTime 12000
scalar RSUScenario.node[4].veinsmobility totalTime 188000
scalar RSUScenario.node[4].veinsmobility stopTime 200000
scalar RSUScenario.node[4].veinsmobility minSpeed 0.82437053541553
scalar RSUScenario.node[4].veinsmobility maxSpeed 1.3888888888889
scalar RSUScenario.node[4].veinsmobility totalDistance 252.71420418519
scalar RSUScenario.node[4].veinsmobility totalCO2Emission 219.94251658444
scalar RSUScenario.node[0].appl generatedWSMs 3
scalar RSUScenario.node[0].appl receivedWSMs 22
scalar RSUScenario.node[0].appl generatedBSMs 1989
scalar RSUScenario.node[0].appl receivedBSMs 7925
scalar RSUScenario.node[0].appl generatedWSAs 3
scalar RSUScenario.node[0].appl receivedWSAs 33
scalar RSUScenario.node[0].appl beaconInterval 0.1
scalar RSUScenario.node[0].nic.phy80211p busyTime 0.0076824924623109
scalar RSUScenario.node[0].nic.phy80211p ncollisions 0
scalar RSUScenario.node[0].nic.mac1609_4 throughputMetricMac 45.768825737344
scalar RSUScenario.node[0].nic.mac1609_4 throughputMbps 0.040153415242075
scalar RSUScenario.node[0].nic.mac1609_4 throughputControlMbps 0
scalar RSUScenario.node[0].nic.mac1609_4 receivedFramesLowerMsg 7980
scalar RSUScenario.node[0].nic.mac1609_4 receivedBitsLowerPackets 0
scalar RSUScenario.node[0].nic.mac1609_4 receivedBitsLoserWsm 0
scalar RSUScenario.node[0].nic.mac1609_4 packetsNotForMe 0
scalar RSUScenario.node[0].nic.mac1609_4 receivedTotalBits 7000928
scalar RSUScenario.node[0].nic.mac1609_4 collisionsPktNonDecoded 0
scalar RSUScenario.node[0].nic.mac1609_4 chUtilizationCCH 0.384072
scalar RSUScenario.node[0].nic.mac1609_4 chUtilizationSCH1 0.000233
scalar RSUScenario.node[0].nic.mac1609_4 chUtilizationSCH2 0
scalar RSUScenario.node[0].nic.mac1609_4 chUtilizationSCH3 0.000466
scalar RSUScenario.node[0].nic.mac1609_4 chUtilizationSCH4 0
scalar RSUScenario.node[0].nic.mac1609_4 chUtilizationHPPS 0
scalar RSUScenario.node[0].nic.mac1609_4 chUtilizationCRIT_SOL 0
scalar RSUScenario.node[0].nic.mac1609_4 previousSignalQualityCCH 100
scalar RSUScenario.node[0].nic.mac1609_4 previousSignalQualitySCH1 100
scalar RSUScenario.node[0].nic.mac1609_4 previousSignalQualitySCH2 0
scalar RSUScenario.node[0].nic.mac1609_4 previousSignalQualitySCH3 100
scalar RSUScenario.node[0].nic.mac1609_4 previousSignalQualitySCH4 0
scalar RSUScenario.node[0].nic.mac1609_4 chPacketsCCH 1992
scalar RSUScenario.node[0].nic.mac1609_4 chPacketsSCH1 1
scalar RSUScenario.node[0].nic.mac1609_4 chPacketsSCH2 0
scalar RSUScenario.node[0].nic.mac1609_4 chPacketsSCH3 2
scalar RSUScenario.node[0].nic.mac1609_4 chPacketsSCH4 0
scalar RSUScenario.node[0].nic.mac1609_4 ReceivedUnicastPackets 0
scalar RSUScenario.node[0].nic.mac1609_4 ReceivedBroadcasts 7980
scalar RSUScenario.node[0].nic.mac1609_4 SentPackets 1995
scalar RSUScenario.node[0].nic.mac1609_4 SentAcknowledgements 0
scalar RSUScenario.node[0].nic.mac1609_4 SNIRLostPackets 0
scalar RSUScenario.node[0].nic.mac1609_4 RXTXLostPackets 0
scalar RSUScenario.node[0].nic.mac1609_4 TotalLostPackets 0
scalar RSUScenario.node[0].nic.mac1609_4 DroppedPacketsInMac 0
scalar RSUScenario.node[0].nic.mac1609_4 TooLittleTime 0
scalar RSUScenario.node[0].nic.mac1609_4 TimesIntoBackoff 2068
scalar RSUScenario.node[0].nic.mac1609_4 SlotsBackoff 3045
scalar RSUScenario.node[0].nic.mac1609_4 NumInternalContention 0
scalar RSUScenario.node[0].nic.mac1609_4 totalBusyTime 17.496694165734
scalar RSUScenario.node[0].nic.mac1609_4 throughputMetricMac:last 45.768825737344
attr source throughputSignalMac
attr title "throughputMetricMac, last"
scalar RSUScenario.node[0].nic.mac1609_4 throughputMetricMac:count 7980
attr source throughputSignalMac
attr title "throughputMetricMac, count"
scalar RSUScenario.node[0].nic.mac1609_4 throughputMetricMac:sum 449620.79804872
attr source throughputSignalMac
attr title "throughputMetricMac, sum"
scalar RSUScenario.node[0].nic.mac1609_4 throughputMetricMac:mean 56.343458402095
attr source throughputSignalMac
attr title "throughputMetricMac, mean"
scalar RSUScenario.node[0].veinsmobility startTime 1000
scalar RSUScenario.node[0].veinsmobility totalTime 199000
scalar RSUScenario.node[0].veinsmobility stopTime 200000
scalar RSUScenario.node[0].veinsmobility minSpeed 0
scalar RSUScenario.node[0].veinsmobility maxSpeed 13.998128671225
scalar RSUScenario.node[0].veinsmobility totalDistance 2198.0734118155
scalar RSUScenario.node[0].veinsmobility totalCO2Emission 451.91260206671
scalar RSUScenario.node[5].appl generatedWSMs 1
scalar RSUScenario.node[5].appl receivedWSMs 46
scalar RSUScenario.node[5].appl generatedBSMs 1829
scalar RSUScenario.node[5].appl receivedBSMs 37518
scalar RSUScenario.node[5].appl generatedWSAs 3
scalar RSUScenario.node[5].appl receivedWSAs 98
scalar RSUScenario.node[5].appl beaconInterval 0.1
scalar RSUScenario.node[5].nic.phy80211p busyTime 0.039502775956312
scalar RSUScenario.node[5].nic.phy80211p ncollisions 2
scalar RSUScenario.node[5].nic.mac1609_4 throughputMetricMac 188.35696892061
scalar RSUScenario.node[5].nic.mac1609_4 throughputMbps 0.16541356772638
scalar RSUScenario.node[5].nic.mac1609_4 throughputControlMbps 0
scalar RSUScenario.node[5].nic.mac1609_4 receivedFramesLowerMsg 37662
scalar RSUScenario.node[5].nic.mac1609_4 receivedBitsLowerPackets 0
scalar RSUScenario.node[5].nic.mac1609_4 receivedBitsLoserWsm 0
scalar RSUScenario.node[5].nic.mac1609_4 packetsNotForMe 0
scalar RSUScenario.node[5].nic.mac1609_4 receivedTotalBits 33074464
scalar RSUScenario.node[5].nic.mac1609_4 collisionsPktNonDecoded 0
scalar RSUScenario.node[5].nic.mac1609_4 chUtilizationCCH 0.353192
scalar RSUScenario.node[5].nic.mac1609_4 chUtilizationSCH1 0
scalar RSUScenario.node[5].nic.mac1609_4 chUtilizationSCH2 0
scalar RSUScenario.node[5].nic.mac1609_4 chUtilizationSCH3 0.000233
scalar RSUScenario.node[5].nic.mac1609_4 chUtilizationSCH4 0
scalar RSUScenario.node[5].nic.mac1609_4 chUtilizationHPPS 0
scalar RSUScenario.node[5].nic.mac1609_4 chUtilizationCRIT_SOL 0
scalar RSUScenario.node[5].nic.mac1609_4 previousSignalQualityCCH 100
scalar RSUScenario.node[5].nic.mac1609_4 previousSignalQualitySCH1 0
scalar RSUScenario.node[5].nic.mac1609_4 previousSignalQualitySCH2 0
scalar RSUScenario.node[5].nic.mac1609_4 previousSignalQualitySCH3 100
scalar RSUScenario.node[5].nic.mac1609_4 previousSignalQualitySCH4 0
scalar RSUScenario.node[5].nic.mac1609_4 chPacketsCCH 1832
scalar RSUScenario.node[5].nic.mac1609_4 chPacketsSCH1 0
scalar RSUScenario.node[5].nic.mac1609_4 chPacketsSCH2 0
scalar RSUScenario.node[5].nic.mac1609_4 chPacketsSCH3 1
scalar RSUScenario.node[5].nic.mac1609_4 chPacketsSCH4 0
scalar RSUScenario.node[5].nic.mac1609_4 ReceivedUnicastPackets 0
scalar RSUScenario.node[5].nic.mac1609_4 ReceivedBroadcasts 37662
scalar RSUScenario.node[5].nic.mac1609_4 SentPackets 1833
scalar RSUScenario.node[5].nic.mac1609_4 SentAcknowledgements 0
scalar RSUScenario.node[5].nic.mac1609_4 SNIRLostPackets 44
scalar RSUScenario.node[5].nic.mac1609_4 RXTXLostPackets 0
scalar RSUScenario.node[5].nic.mac1609_4 TotalLostPackets 44
scalar RSUScenario.node[5].nic.mac1609_4 DroppedPacketsInMac 0
scalar RSUScenario.node[5].nic.mac1609_4 TooLittleTime 0
scalar RSUScenario.node[5].nic.mac1609_4 TimesIntoBackoff 1836
scalar RSUScenario.node[5].nic.mac1609_4 SlotsBackoff 2718
scalar RSUScenario.node[5].nic.mac1609_4 NumInternalContention 0
scalar RSUScenario.node[5].nic.mac1609_4 totalBusyTime 10.157058687287
scalar RSUScenario.node[5].nic.mac1609_4 throughputMetricMac:last 188.35696892061
attr source throughputSignalMac
attr title "throughputMetricMac, last"
scalar RSUScenario.node[5].nic.mac1609_4 throughputMetricMac:count 37662
attr source throughputSignalMac
attr title "throughputMetricMac, count"
scalar RSUScenario.node[5].nic.mac1609_4 throughputMetricMac:sum 4726262.9439007
attr source throughputSignalMac
attr title "throughputMetricMac, sum"
scalar RSUScenario.node[5].nic.mac1609_4 throughputMetricMac:mean 125.49155498648
attr source throughputSignalMac
attr title "throughputMetricMac, mean"
scalar RSUScenario.node[5].veinsmobility startTime 17000
scalar RSUScenario.node[5].veinsmobility totalTime 183000
scalar RSUScenario.node[5].veinsmobility stopTime 200000
scalar RSUScenario.node[5].veinsmobility minSpeed 0.83774402481715
scalar RSUScenario.node[5].veinsmobility maxSpeed 13.958589120226
scalar RSUScenario.node[5].veinsmobility totalDistance 356.08221082044
scalar RSUScenario.node[5].veinsmobility totalCO2Emission 247.75260550498
scalar RSUScenario.node[14].appl generatedWSMs 1
scalar RSUScenario.node[14].appl receivedWSMs 27
scalar RSUScenario.node[14].appl generatedBSMs 1139
scalar RSUScenario.node[14].appl receivedBSMs 30737
scalar RSUScenario.node[14].appl generatedWSAs 2
scalar RSUScenario.node[14].appl receivedWSAs 63
scalar RSUScenario.node[14].appl beaconInterval 0.1
scalar RSUScenario.node[14].nic.phy80211p busyTime 0.051882877193015
scalar RSUScenario.node[14].nic.phy80211p ncollisions 2
scalar RSUScenario.node[14].nic.mac1609_4 throughputMetricMac 154.1734450955
scalar RSUScenario.node[14].nic.mac1609_4 throughputMbps 0.13545081637154
scalar RSUScenario.node[14].nic.mac1609_4 throughputControlMbps 0
scalar RSUScenario.node[14].nic.mac1609_4 receivedFramesLowerMsg 30827
scalar RSUScenario.node[14].nic.mac1609_4 receivedBitsLowerPackets 0
scalar RSUScenario.node[14].nic.mac1609_4 receivedBitsLoserWsm 0
scalar RSUScenario.node[14].nic.mac1609_4 packetsNotForMe 0
scalar RSUScenario.node[14].nic.mac1609_4 receivedTotalBits 27083408
scalar RSUScenario.node[14].nic.mac1609_4 collisionsPktNonDecoded 0
scalar RSUScenario.node[14].nic.mac1609_4 chUtilizationCCH 0.219957
scalar RSUScenario.node[14].nic.mac1609_4 chUtilizationSCH1 0
scalar RSUScenario.node[14].nic.mac1609_4 chUtilizationSCH2 0.000233
scalar RSUScenario.node[14].nic.mac1609_4 chUtilizationSCH3 0
scalar RSUScenario.node[14].nic.mac1609_4 chUtilizationSCH4 0
scalar RSUScenario.node[14].nic.mac1609_4 chUtilizationHPPS 0
scalar RSUScenario.node[14].nic.mac1609_4 chUtilizationCRIT_SOL 0
scalar RSUScenario.node[14].nic.mac1609_4 previousSignalQualityCCH 100
scalar RSUScenario.node[14].nic.mac1609_4 previousSignalQualitySCH1 0
scalar RSUScenario.node[14].nic.mac1609_4 previousSignalQualitySCH2 100
scalar RSUScenario.node[14].nic.mac1609_4 previousSignalQualitySCH3 0
scalar RSUScenario.node[14].nic.mac1609_4 previousSignalQualitySCH4 0
scalar RSUScenario.node[14].nic.mac1609_4 chPacketsCCH 1141
scalar RSUScenario.node[14].nic.mac1609_4 chPacketsSCH1 0
scalar RSUScenario.node[14].nic.mac1609_4 chPacketsSCH2 0
scalar RSUScenario.node[14].nic.mac1609_4 chPacketsSCH3 0
scalar RSUScenario.node[14].nic.mac1609_4 chPacketsSCH4 0
scalar RSUScenario.node[14].nic.mac1609_4 ReceivedUnicastPackets 0
scalar RSUScenario.node[14].nic.mac1609_4 ReceivedBroadcasts 30827
scalar RSUScenario.node[14].nic.mac1609_4 SentPackets 1142
scalar RSUScenario.node[14].nic.mac1609_4 SentAcknowledgements 0
scalar RSUScenario.node[14].nic.mac1609_4 SNIRLostPackets 14
scalar RSUScenario.node[14].nic.mac1609_4 RXTXLostPackets 1
scalar RSUScenario.node[14].nic.mac1609_4 TotalLostPackets 15
scalar RSUScenario.node[14].nic.mac1609_4 DroppedPacketsInMac 0
scalar RSUScenario.node[14].nic.mac1609_4 TooLittleTime 0
scalar RSUScenario.node[14].nic.mac1609_4 TimesIntoBackoff 1143
scalar RSUScenario.node[14].nic.mac1609_4 SlotsBackoff 1703
scalar RSUScenario.node[14].nic.mac1609_4 NumInternalContention 0
scalar RSUScenario.node[14].nic.mac1609_4 totalBusyTime 6.380358370327
scalar RSUScenario.node[14].nic.mac1609_4 throughputMetricMac:last 154.1734450955
attr source throughputSignalMac
attr title "throughputMetricMac, last"
scalar RSUScenario.node[14].nic.mac1609_4 throughputMetricMac:count 30827
attr source throughputSignalMac
attr title "throughputMetricMac, count"
scalar RSUScenario.node[14].nic.mac1609_4 throughputMetricMac:sum 2878792.8047297
attr source throughputSignalMac
attr title "throughputMetricMac, sum"
scalar RSUScenario.node[14].nic.mac1609_4 throughputMetricMac:mean 93.385434999504
attr source throughputSignalMac
attr title "throughputMetricMac, mean"
scalar RSUScenario.node[14].veinsmobility startTime 86000
scalar RSUScenario.node[14].veinsmobility totalTime 114000
scalar RSUScenario.node[14].veinsmobility stopTime 200000
scalar RSUScenario.node[14].veinsmobility minSpeed 0.44683507437876
scalar RSUScenario.node[14].veinsmobility maxSpeed 7.1334462066043
scalar RSUScenario.node[14].veinsmobility totalDistance 199.48821822597
scalar RSUScenario.node[14].veinsmobility totalCO2Emission 137.46632826726
scalar RSUScenario.node[15].appl generatedWSMs 1
scalar RSUScenario.node[15].appl receivedWSMs 27
scalar RSUScenario.node[15].appl generatedBSMs 1119
scalar RSUScenario.node[15].appl receivedBSMs 30328
scalar RSUScenario.node[15].appl generatedWSAs 3
scalar RSUScenario.node[15].appl receivedWSAs 62
scalar RSUScenario.node[15].appl beaconInterval 0.1
scalar RSUScenario.node[15].nic.phy80211p busyTime 0.052109714285747
scalar RSUScenario.node[15].nic.phy80211p ncollisions 2
scalar RSUScenario.node[15].nic.mac1609_4 throughputMetricMac 152.12293375305
scalar RSUScenario.node[15].nic.mac1609_4 throughputMbps 0.13365036738792
scalar RSUScenario.node[15].nic.mac1609_4 throughputControlMbps 0
scalar RSUScenario.node[15].nic.mac1609_4 receivedFramesLowerMsg 30417
scalar RSUScenario.node[15].nic.mac1609_4 receivedBitsLowerPackets 0
scalar RSUScenario.node[15].nic.mac1609_4 receivedBitsLoserWsm 0
scalar RSUScenario.node[15].nic.mac1609_4 packetsNotForMe 0
scalar RSUScenario.node[15].nic.mac1609_4 receivedTotalBits 26723408
scalar RSUScenario.node[15].nic.mac1609_4 collisionsPktNonDecoded 0
scalar RSUScenario.node[15].nic.mac1609_4 chUtilizationCCH 0.216162
scalar RSUScenario.node[15].nic.mac1609_4 chUtilizationSCH1 0
scalar RSUScenario.node[15].nic.mac1609_4 chUtilizationSCH2 0.000233
scalar RSUScenario.node[15].nic.mac1609_4 chUtilizationSCH3 0
scalar RSUScenario.node[15].nic.mac1609_4 chUtilizationSCH4 0
scalar RSUScenario.node[15].nic.mac1609_4 chUtilizationHPPS 0
scalar RSUScenario.node[15].nic.mac1609_4 chUtilizationCRIT_SOL 0
scalar RSUScenario.node[15].nic.mac1609_4 previousSignalQualityCCH 100
scalar RSUScenario.node[15].nic.mac1609_4 previousSignalQualitySCH1 0
scalar RSUScenario.node[15].nic.mac1609_4 previousSignalQualitySCH2 100
scalar RSUScenario.node[15].nic.mac1609_4 previousSignalQualitySCH3 0
scalar RSUScenario.node[15].nic.mac1609_4 previousSignalQualitySCH4 0
scalar RSUScenario.node[15].nic.mac1609_4 chPacketsCCH 1122
scalar RSUScenario.node[15].nic.mac1609_4 chPacketsSCH1 0
scalar RSUScenario.node[15].nic.mac1609_4 chPacketsSCH2 0
scalar RSUScenario.node[15].nic.mac1609_4 chPacketsSCH3 0
scalar RSUScenario.node[15].nic.mac1609_4 chPacketsSCH4 0
scalar RSUScenario.node[15].nic.mac1609_4 ReceivedUnicastPackets 0
scalar RSUScenario.node[15].nic.mac1609_4 ReceivedBroadcasts 30417
scalar RSUScenario.node[15].nic.mac1609_4 SentPackets 1123
scalar RSUScenario.node[15].nic.mac1609_4 SentAcknowledgements 0
scalar RSUScenario.node[15].nic.mac1609_4 SNIRLostPackets 15
scalar RSUScenario.node[15].nic.mac1609_4 RXTXLostPackets 0
scalar RSUScenario.node[15].nic.mac1609_4 TotalLostPackets 15
scalar RSUScenario.node[15].nic.mac1609_4 DroppedPacketsInMac 0
scalar RSUScenario.node[15].nic.mac1609_4 TooLittleTime 0
scalar RSUScenario.node[15].nic.mac1609_4 TimesIntoBackoff 1124
scalar RSUScenario.node[15].nic.mac1609_4 SlotsBackoff 1677
scalar RSUScenario.node[15].nic.mac1609_4 NumInternalContention 0
scalar RSUScenario.node[15].nic.mac1609_4 totalBusyTime 6.33334010576
scalar RSUScenario.node[15].nic.mac1609_4 throughputMetricMac:last 152.12293375305
attr source throughputSignalMac
attr title "throughputMetricMac, last"
scalar RSUScenario.node[15].nic.mac1609_4 throughputMetricMac:count 30417
attr source throughputSignalMac
attr title "throughputMetricMac, count"
scalar RSUScenario.node[15].nic.mac1609_4 throughputMetricMac:sum 2799362.1891143
attr source throughputSignalMac
attr title "throughputMetricMac, sum"
scalar RSUScenario.node[15].nic.mac1609_4 throughputMetricMac:mean 92.032816816725
attr source throughputSignalMac
attr title "throughputMetricMac, mean"
scalar RSUScenario.node[15].veinsmobility startTime 88000
scalar RSUScenario.node[15].veinsmobility totalTime 112000
scalar RSUScenario.node[15].veinsmobility stopTime 200000
scalar RSUScenario.node[15].veinsmobility minSpeed 0
scalar RSUScenario.node[15].veinsmobility maxSpeed 6.8203385037629
scalar RSUScenario.node[15].veinsmobility totalDistance 191.1297368111
scalar RSUScenario.node[15].veinsmobility totalCO2Emission 135.19762320358
scalar RSUScenario.node[16].appl generatedWSMs 1
scalar RSUScenario.node[16].appl receivedWSMs 27
scalar RSUScenario.node[16].appl generatedBSMs 1099
scalar RSUScenario.node[16].appl receivedBSMs 29999
scalar RSUScenario.node[16].appl generatedWSAs 2
scalar RSUScenario.node[16].appl receivedWSAs 63
scalar RSUScenario.node[16].appl beaconInterval 0.1
scalar RSUScenario.node[16].nic.phy80211p busyTime 0.052466036363669
scalar RSUScenario.node[16].nic.phy80211p ncollisions 2
scalar RSUScenario.node[16].nic.mac1609_4 throughputMetricMac 150.482524676
scalar RSUScenario.node[16].nic.mac1609_4 throughputMbps 0.13220280640244
scalar RSUScenario.node[16].nic.mac1609_4 throughputControlMbps 0
scalar RSUScenario.node[16].nic.mac1609_4 receivedFramesLowerMsg 30089
scalar RSUScenario.node[16].nic.mac1609_4 receivedBitsLowerPackets 0
scalar RSUScenario.node[16].nic.mac1609_4 receivedBitsLoserWsm 0
scalar RSUScenario.node[16].nic.mac1609_4 packetsNotForMe 0
scalar RSUScenario.node[16].nic.mac1609_4 receivedTotalBits 26433968
scalar RSUScenario.node[16].nic.mac1609_4 collisionsPktNonDecoded 0
scalar RSUScenario.node[16].nic.mac1609_4 chUtilizationCCH 0.212237
scalar RSUScenario.node[16].nic.mac1609_4 chUtilizationSCH1 0
scalar RSUScenario.node[16].nic.mac1609_4 chUtilizationSCH2 0.000233
scalar RSUScenario.node[16].nic.mac1609_4 chUtilizationSCH3 0
scalar RSUScenario.node[16].nic.mac1609_4 chUtilizationSCH4 0
scalar RSUScenario.node[16].nic.mac1609_4 chUtilizationHPPS 0
scalar RSUScenario.node[16].nic.mac1609_4 chUtilizationCRIT_SOL 0
scalar RSUScenario.node[16].nic.mac1609_4 previousSignalQualityCCH 100
scalar RSUScenario.node[16].nic.mac1609_4 previousSignalQualitySCH1 0
scalar RSUScenario.node[16].nic.mac1609_4 previousSignalQualitySCH2 100
scalar RSUScenario.node[16].nic.mac1609_4 previousSignalQualitySCH3 0
scalar RSUScenario.node[16].nic.mac1609_4 previousSignalQualitySCH4 0
scalar RSUScenario.node[16].nic.mac1609_4 chPacketsCCH 1101
scalar RSUScenario.node[16].nic.mac1609_4 chPacketsSCH1 0
scalar RSUScenario.node[16].nic.mac1609_4 chPacketsSCH2 0
scalar RSUScenario.node[16].nic.mac1609_4 chPacketsSCH3 0
scalar RSUScenario.node[16].nic.mac1609_4 chPacketsSCH4 0
scalar RSUScenario.node[16].nic.mac1609_4 ReceivedUnicastPackets 0
scalar RSUScenario.node[16].nic.mac1609_4 ReceivedBroadcasts 30089
scalar RSUScenario.node[16].nic.mac1609_4 SentPackets 1102
scalar RSUScenario.node[16].nic.mac1609_4 SentAcknowledgements 0
scalar RSUScenario.node[16].nic.mac1609_4 SNIRLostPackets 5
scalar RSUScenario.node[16].nic.mac1609_4 RXTXLostPackets 0
scalar RSUScenario.node[16].nic.mac1609_4 TotalLostPackets 5
scalar RSUScenario.node[16].nic.mac1609_4 DroppedPacketsInMac 0
scalar RSUScenario.node[16].nic.mac1609_4 TooLittleTime 0
scalar RSUScenario.node[16].nic.mac1609_4 TimesIntoBackoff 1103
scalar RSUScenario.node[16].nic.mac1609_4 SlotsBackoff 1674
scalar RSUScenario.node[16].nic.mac1609_4 NumInternalContention 0
scalar RSUScenario.node[16].nic.mac1609_4 totalBusyTime 6.087697158633
scalar RSUScenario.node[16].nic.mac1609_4 throughputMetricMac:last 150.482524676
attr source throughputSignalMac
attr title "throughputMetricMac, last"
scalar RSUScenario.node[16].nic.mac1609_4 throughputMetricMac:count 30089
attr source throughputSignalMac
attr title "throughputMetricMac, count"
scalar RSUScenario.node[16].nic.mac1609_4 throughputMetricMac:sum 2732768.798246
attr source throughputSignalMac
attr title "throughputMetricMac, sum"
scalar RSUScenario.node[16].nic.mac1609_4 throughputMetricMac:mean 90.822852146833
attr source throughputSignalMac
attr title "throughputMetricMac, mean"
scalar RSUScenario.node[16].veinsmobility startTime 90000
scalar RSUScenario.node[16].veinsmobility totalTime 110000
scalar RSUScenario.node[16].veinsmobility stopTime 200000
scalar RSUScenario.node[16].veinsmobility minSpeed 0.44014457971905
scalar RSUScenario.node[16].veinsmobility maxSpeed 6.3011961638623
scalar RSUScenario.node[16].veinsmobility totalDistance 182.83228921298
scalar RSUScenario.node[16].veinsmobility totalCO2Emission 131.94726579661
scalar RSUScenario.node[17].appl generatedWSMs 1
scalar RSUScenario.node[17].appl receivedWSMs 27
scalar RSUScenario.node[17].appl generatedBSMs 1079
scalar RSUScenario.node[17].appl receivedBSMs 29700
scalar RSUScenario.node[17].appl generatedWSAs 2
scalar RSUScenario.node[17].appl receivedWSAs 63
scalar RSUScenario.node[17].appl beaconInterval 0.1
scalar RSUScenario.node[17].nic.phy80211p busyTime 0.052906074074107
scalar RSUScenario.node[17].nic.phy80211p ncollisions 2
scalar RSUScenario.node[17].nic.mac1609_4 throughputMetricMac 148.98715176672
scalar RSUScenario.node[17].nic.mac1609_4 throughputMbps 0.13088687824231
scalar RSUScenario.node[17].nic.mac1609_4 throughputControlMbps 0
scalar RSUScenario.node[17].nic.mac1609_4 receivedFramesLowerMsg 29790
scalar RSUScenario.node[17].nic.mac1609_4 receivedBitsLowerPackets 0
scalar RSUScenario.node[17].nic.mac1609_4 receivedBitsLoserWsm 0
scalar RSUScenario.node[17].nic.mac1609_4 packetsNotForMe 0
scalar RSUScenario.node[17].nic.mac1609_4 receivedTotalBits 26170848
scalar RSUScenario.node[17].nic.mac1609_4 collisionsPktNonDecoded 0
scalar RSUScenario.node[17].nic.mac1609_4 chUtilizationCCH 0.208377
scalar RSUScenario.node[17].nic.mac1609_4 chUtilizationSCH1 0
scalar RSUScenario.node[17].nic.mac1609_4 chUtilizationSCH2 0.000233
scalar RSUScenario.node[17].nic.mac1609_4 chUtilizationSCH3 0
scalar RSUScenario.node[17].nic.mac1609_4 chUtilizationSCH4 0
scalar RSUScenario.node[17].nic.mac1609_4 chUtilizationHPPS 0
scalar RSUScenario.node[17].nic.mac1609_4 chUtilizationCRIT_SOL 0
scalar RSUScenario.node[17].nic.mac1609_4 previousSignalQualityCCH 100
scalar RSUScenario.node[17].nic.mac1609_4 previousSignalQualitySCH1 0
scalar RSUScenario.node[17].nic.mac1609_4 previousSignalQualitySCH2 100
scalar RSUScenario.node[17].nic.mac1609_4 previousSignalQualitySCH3 0
scalar RSUScenario.node[17].nic.mac1609_4 previousSignalQualitySCH4 0
scalar RSUScenario.node[17].nic.mac1609_4 chPacketsCCH 1081
scalar RSUScenario.node[17].nic.mac1609_4 chPacketsSCH1 0
scalar RSUScenario.node[17].nic.mac1609_4 chPacketsSCH2 1
scalar RSUScenario.node[17].nic.mac1609_4 chPacketsSCH3 0
scalar RSUScenario.node[17].nic.mac1609_4 chPacketsSCH4 0
scalar RSUScenario.node[17].nic.mac1609_4 ReceivedUnicastPackets 0
scalar RSUScenario.node[17].nic.mac1609_4 ReceivedBroadcasts 29790
scalar RSUScenario.node[17].nic.mac1609_4 SentPackets 1082
scalar RSUScenario.node[17].nic.mac1609_4 SentAcknowledgements 0
scalar RSUScenario.node[17].nic.mac1609_4 SNIRLostPackets 5
scalar RSUScenario.node[17].nic.mac1609_4 RXTXLostPackets 0
scalar RSUScenario.node[17].nic.mac1609_4 TotalLostPackets 5
scalar RSUScenario.node[17].nic.mac1609_4 DroppedPacketsInMac 0
scalar RSUScenario.node[17].nic.mac1609_4 TooLittleTime 0
scalar RSUScenario.node[17].nic.mac1609_4 TimesIntoBackoff 1083
scalar RSUScenario.node[17].nic.mac1609_4 SlotsBackoff 1610
scalar RSUScenario.node[17].nic.mac1609_4 NumInternalContention 0
scalar RSUScenario.node[17].nic.mac1609_4 totalBusyTime 6.16053742459
scalar RSUScenario.node[17].nic.mac1609_4 throughputMetricMac:last 148.98715176672
attr source throughputSignalMac
attr title "throughputMetricMac, last"
scalar RSUScenario.node[17].nic.mac1609_4 throughputMetricMac:count 29790
attr source throughputSignalMac
attr title "throughputMetricMac, count"
scalar RSUScenario.node[17].nic.mac1609_4 throughputMetricMac:sum 2671126.4043758
attr source throughputSignalMac
attr title "throughputMetricMac, sum"
scalar RSUScenario.node[17].nic.mac1609_4 throughputMetricMac:mean 89.665203235174
attr source throughputSignalMac
attr title "throughputMetricMac, mean"
scalar RSUScenario.node[17].veinsmobility startTime 92000
scalar RSUScenario.node[17].veinsmobility totalTime 108000
scalar RSUScenario.node[17].veinsmobility stopTime 200000
scalar RSUScenario.node[17].veinsmobility minSpeed 0.2383977351168
scalar RSUScenario.node[17].veinsmobility maxSpeed 5.4657378624806
scalar RSUScenario.node[17].veinsmobility totalDistance 174.82840037133
scalar RSUScenario.node[17].veinsmobility totalCO2Emission 129.3842554114
scalar RSUScenario.node[18].appl generatedWSMs 1
scalar RSUScenario.node[18].appl receivedWSMs 28
scalar RSUScenario.node[18].appl generatedBSMs 1059
scalar RSUScenario.node[18].appl receivedBSMs 29371
scalar RSUScenario.node[18].appl generatedWSAs 2
scalar RSUScenario.node[18].appl receivedWSAs 63
scalar RSUScenario.node[18].appl beaconInterval 0.1
scalar RSUScenario.node[18].nic.phy80211p busyTime 0.053310566037768
scalar RSUScenario.node[18].nic.phy80211p ncollisions 2
scalar RSUScenario.node[18].nic.mac1609_4 throughputMetricMac 147.34674269209
scalar RSUScenario.node[18].nic.mac1609_4 throughputMbps 0.12944443853601
scalar RSUScenario.node[18].nic.mac1609_4 throughputControlMbps 0
scalar RSUScenario.node[18].nic.mac1609_4 receivedFramesLowerMsg 29462
scalar RSUScenario.node[18].nic.mac1609_4 receivedBitsLowerPackets 0
scalar RSUScenario.node[18].nic.mac1609_4 receivedBitsLoserWsm 0
scalar RSUScenario.node[18].nic.mac1609_4 packetsNotForMe 0
scalar RSUScenario.node[18].nic.mac1609_4 receivedTotalBits 25882432
scalar RSUScenario.node[18].nic.mac1609_4 collisionsPktNonDecoded 0
scalar RSUScenario.node[18].nic.mac1609_4 chUtilizationCCH 0.204517
scalar RSUScenario.node[18].nic.mac1609_4 chUtilizationSCH1 0
scalar RSUScenario.node[18].nic.mac1609_4 chUtilizationSCH2 0.000233
scalar RSUScenario.node[18].nic.mac1609_4 chUtilizationSCH3 0
scalar RSUScenario.node[18].nic.mac1609_4 chUtilizationSCH4 0
scalar RSUScenario.node[18].nic.mac1609_4 chUtilizationHPPS 0
scalar RSUScenario.node[18].nic.mac1609_4 chUtilizationCRIT_SOL 0
scalar RSUScenario.node[18].nic.mac1609_4 previousSignalQualityCCH 100
scalar RSUScenario.node[18].nic.mac1609_4 previousSignalQualitySCH1 0
scalar RSUScenario.node[18].nic.mac1609_4 previousSignalQualitySCH2 100
scalar RSUScenario.node[18].nic.mac1609_4 previousSignalQualitySCH3 0
scalar RSUScenario.node[18].nic.mac1609_4 previousSignalQualitySCH4 0
scalar RSUScenario.node[18].nic.mac1609_4 chPacketsCCH 1061
scalar RSUScenario.node[18].nic.mac1609_4 chPacketsSCH1 0
scalar RSUScenario.node[18].nic.mac1609_4 chPacketsSCH2 1
scalar RSUScenario.node[18].nic.mac1609_4 chPacketsSCH3 0
scalar RSUScenario.node[18].nic.mac1609_4 chPacketsSCH4 0
scalar RSUScenario.node[18].nic.mac1609_4 ReceivedUnicastPackets 0
scalar RSUScenario.node[18].nic.mac1609_4 ReceivedBroadcasts 29462
scalar RSUScenario.node[18].nic.mac1609_4 SentPackets 1062
scalar RSUScenario.node[18].nic.mac1609_4 SentAcknowledgements 0
scalar RSUScenario.node[18].nic.mac1609_4 SNIRLostPackets 5
scalar RSUScenario.node[18].nic.mac1609_4 RXTXLostPackets 0
scalar RSUScenario.node[18].nic.mac1609_4 TotalLostPackets 5
scalar RSUScenario.node[18].nic.mac1609_4 DroppedPacketsInMac 0
scalar RSUScenario.node[18].nic.mac1609_4 TooLittleTime 0
scalar RSUScenario.node[18].nic.mac1609_4 TimesIntoBackoff 1062
scalar RSUScenario.node[18].nic.mac1609_4 SlotsBackoff 1622
scalar RSUScenario.node[18].nic.mac1609_4 NumInternalContention 0
scalar RSUScenario.node[18].nic.mac1609_4 totalBusyTime 6.02517709305
scalar RSUScenario.node[18].nic.mac1609_4 throughputMetricMac:last 147.34674269209
attr source throughputSignalMac
attr title "throughputMetricMac, last"
scalar RSUScenario.node[18].nic.mac1609_4 throughputMetricMac:count 29462
attr source throughputSignalMac
attr title "throughputMetricMac, count"
scalar RSUScenario.node[18].nic.mac1609_4 throughputMetricMac:sum 2605057.1765947
attr source throughputSignalMac
attr title "throughputMetricMac, sum"
scalar RSUScenario.node[18].nic.mac1609_4 throughputMetricMac:mean 88.420921071031
attr source throughputSignalMac
attr title "throughputMetricMac, mean"
scalar RSUScenario.node[18].veinsmobility startTime 94000
scalar RSUScenario.node[18].veinsmobility totalTime 106000
scalar RSUScenario.node[18].veinsmobility stopTime 200000
scalar RSUScenario.node[18].veinsmobility minSpeed 0.42773956329504
scalar RSUScenario.node[18].veinsmobility maxSpeed 5.009624306905
scalar RSUScenario.node[18].veinsmobility totalDistance 166.98121524166
scalar RSUScenario.node[18].veinsmobility totalCO2Emission 125.44722950652
scalar RSUScenario.node[19].appl generatedWSMs 1
scalar RSUScenario.node[19].appl receivedWSMs 28
scalar RSUScenario.node[19].appl generatedBSMs 1039
scalar RSUScenario.node[19].appl receivedBSMs 29032
scalar RSUScenario.node[19].appl generatedWSAs 2
scalar RSUScenario.node[19].appl receivedWSAs 63
scalar RSUScenario.node[19].appl beaconInterval 0.1
scalar RSUScenario.node[19].nic.phy80211p busyTime 0.053709923076956
scalar RSUScenario.node[19].nic.phy80211p ncollisions 2
scalar RSUScenario.node[19].nic.mac1609_4 throughputMetricMac 145.65131990243
scalar RSUScenario.node[19].nic.mac1609_4 throughputMbps 0.12795246648114
scalar RSUScenario.node[19].nic.mac1609_4 throughputControlMbps 0
scalar RSUScenario.node[19].nic.mac1609_4 receivedFramesLowerMsg 29123
scalar RSUScenario.node[19].nic.mac1609_4 receivedBitsLowerPackets 0
scalar RSUScenario.node[19].nic.mac1609_4 receivedBitsLoserWsm 0
scalar RSUScenario.node[19].nic.mac1609_4 packetsNotForMe 0
scalar RSUScenario.node[19].nic.mac1609_4 receivedTotalBits 25584112
scalar RSUScenario.node[19].nic.mac1609_4 collisionsPktNonDecoded 0
scalar RSUScenario.node[19].nic.mac1609_4 chUtilizationCCH 0.200657
scalar RSUScenario.node[19].nic.mac1609_4 chUtilizationSCH1 0
scalar RSUScenario.node[19].nic.mac1609_4 chUtilizationSCH2 0.000233
scalar RSUScenario.node[19].nic.mac1609_4 chUtilizationSCH3 0
scalar RSUScenario.node[19].nic.mac1609_4 chUtilizationSCH4 0
scalar RSUScenario.node[19].nic.mac1609_4 chUtilizationHPPS 0
scalar RSUScenario.node[19].nic.mac1609_4 chUtilizationCRIT_SOL 0
scalar RSUScenario.node[19].nic.mac1609_4 previousSignalQualityCCH 100
scalar RSUScenario.node[19].nic.mac1609_4 previousSignalQualitySCH1 0
scalar RSUScenario.node[19].nic.mac1609_4 previousSignalQualitySCH2 100
scalar RSUScenario.node[19].nic.mac1609_4 previousSignalQualitySCH3 0
scalar RSUScenario.node[19].nic.mac1609_4 previousSignalQualitySCH4 0
scalar RSUScenario.node[19].nic.mac1609_4 chPacketsCCH 1041
scalar RSUScenario.node[19].nic.mac1609_4 chPacketsSCH1 0
scalar RSUScenario.node[19].nic.mac1609_4 chPacketsSCH2 0
scalar RSUScenario.node[19].nic.mac1609_4 chPacketsSCH3 0
scalar RSUScenario.node[19].nic.mac1609_4 chPacketsSCH4 0
scalar RSUScenario.node[19].nic.mac1609_4 ReceivedUnicastPackets 0
scalar RSUScenario.node[19].nic.mac1609_4 ReceivedBroadcasts 29123
scalar RSUScenario.node[19].nic.mac1609_4 SentPackets 1042
scalar RSUScenario.node[19].nic.mac1609_4 SentAcknowledgements 0
scalar RSUScenario.node[19].nic.mac1609_4 SNIRLostPackets 5
scalar RSUScenario.node[19].nic.mac1609_4 RXTXLostPackets 0
scalar RSUScenario.node[19].nic.mac1609_4 TotalLostPackets 5
scalar RSUScenario.node[19].nic.mac1609_4 DroppedPacketsInMac 0
scalar RSUScenario.node[19].nic.mac1609_4 TooLittleTime 0
scalar RSUScenario.node[19].nic.mac1609_4 TimesIntoBackoff 1952
scalar RSUScenario.node[19].nic.mac1609_4 SlotsBackoff 2864
scalar RSUScenario.node[19].nic.mac1609_4 NumInternalContention 0
scalar RSUScenario.node[19].nic.mac1609_4 totalBusyTime 5.897422993863
scalar RSUScenario.node[19].nic.mac1609_4 throughputMetricMac:last 145.65131990243
attr source throughputSignalMac
attr title "throughputMetricMac, last"
scalar RSUScenario.node[19].nic.mac1609_4 throughputMetricMac:count 29123
attr source throughputSignalMac
attr title "throughputMetricMac, count"
scalar RSUScenario.node[19].nic.mac1609_4 throughputMetricMac:sum 2537533.6483046
attr source throughputSignalMac
attr title "throughputMetricMac, sum"
scalar RSUScenario.node[19].nic.mac1609_4 throughputMetricMac:mean 87.131602111891
attr source throughputSignalMac
attr title "throughputMetricMac, mean"
scalar RSUScenario.node[19].veinsmobility startTime 96000
scalar RSUScenario.node[19].veinsmobility totalTime 104000
scalar RSUScenario.node[19].veinsmobility stopTime 200000
scalar RSUScenario.node[19].veinsmobility minSpeed 0.43514961487963
scalar RSUScenario.node[19].veinsmobility maxSpeed 4.6532842827868
scalar RSUScenario.node[19].veinsmobility totalDistance 159.6350757384
scalar RSUScenario.node[19].veinsmobility totalCO2Emission 123.1610892824
scalar RSUScenario.node[20].appl generatedWSMs 3
scalar RSUScenario.node[20].appl receivedWSMs 28
scalar RSUScenario.node[20].appl generatedBSMs 1019
scalar RSUScenario.node[20].appl receivedBSMs 28653
scalar RSUScenario.node[20].appl generatedWSAs 3
scalar RSUScenario.node[20].appl receivedWSAs 62
scalar RSUScenario.node[20].appl beaconInterval 0.1
scalar RSUScenario.node[20].nic.phy80211p busyTime 0.054044470588268
scalar RSUScenario.node[20].nic.phy80211p ncollisions 0
scalar RSUScenario.node[20].nic.mac1609_4 throughputMetricMac 143.75084598186
scalar RSUScenario.node[20].nic.mac1609_4 throughputMbps 0.12628405042876
scalar RSUScenario.node[20].nic.mac1609_4 throughputControlMbps 0
scalar RSUScenario.node[20].nic.mac1609_4 receivedFramesLowerMsg 28743
scalar RSUScenario.node[20].nic.mac1609_4 receivedBitsLowerPackets 0
scalar RSUScenario.node[20].nic.mac1609_4 receivedBitsLoserWsm 0
scalar RSUScenario.node[20].nic.mac1609_4 packetsNotForMe 0
scalar RSUScenario.node[20].nic.mac1609_4 receivedTotalBits 25250512
scalar RSUScenario.node[20].nic.mac1609_4 collisionsPktNonDecoded 0
scalar RSUScenario.node[20].nic.mac1609_4 chUtilizationCCH 0.196862
scalar RSUScenario.node[20].nic.mac1609_4 chUtilizationSCH1 0
scalar RSUScenario.node[20].nic.mac1609_4 chUtilizationSCH2 0.000699
scalar RSUScenario.node[20].nic.mac1609_4 chUtilizationSCH3 0
scalar RSUScenario.node[20].nic.mac1609_4 chUtilizationSCH4 0
scalar RSUScenario.node[20].nic.mac1609_4 chUtilizationHPPS 0
scalar RSUScenario.node[20].nic.mac1609_4 chUtilizationCRIT_SOL 0
scalar RSUScenario.node[20].nic.mac1609_4 previousSignalQualityCCH 100
scalar RSUScenario.node[20].nic.mac1609_4 previousSignalQualitySCH1 0
scalar RSUScenario.node[20].nic.mac1609_4 previousSignalQualitySCH2 100
scalar RSUScenario.node[20].nic.mac1609_4 previousSignalQualitySCH3 0
scalar RSUScenario.node[20].nic.mac1609_4 previousSignalQualitySCH4 0
scalar RSUScenario.node[20].nic.mac1609_4 chPacketsCCH 1022
scalar RSUScenario.node[20].nic.mac1609_4 chPacketsSCH1 0
scalar RSUScenario.node[20].nic.mac1609_4 chPacketsSCH2 3
scalar RSUScenario.node[20].nic.mac1609_4 chPacketsSCH3 0
scalar RSUScenario.node[20].nic.mac1609_4 chPacketsSCH4 0
scalar RSUScenario.node[20].nic.mac1609_4 ReceivedUnicastPackets 0
scalar RSUScenario.node[20].nic.mac1609_4 ReceivedBroadcasts 28743
scalar RSUScenario.node[20].nic.mac1609_4 SentPackets 1025
scalar RSUScenario.node[20].nic.mac1609_4 SentAcknowledgements 0
scalar RSUScenario.node[20].nic.mac1609_4 SNIRLostPackets 3
scalar RSUScenario.node[20].nic.mac1609_4 RXTXLostPackets 0
scalar RSUScenario.node[20].nic.mac1609_4 TotalLostPackets 3
scalar RSUScenario.node[20].nic.mac1609_4 DroppedPacketsInMac 0
scalar RSUScenario.node[20].nic.mac1609_4 TooLittleTime 0
scalar RSUScenario.node[20].nic.mac1609_4 TimesIntoBackoff 1025
scalar RSUScenario.node[20].nic.mac1609_4 SlotsBackoff 1559
scalar RSUScenario.node[20].nic.mac1609_4 NumInternalContention 0
scalar RSUScenario.node[20].nic.mac1609_4 totalBusyTime 5.989952841356
scalar RSUScenario.node[20].nic.mac1609_4 throughputMetricMac:last 143.75084598186
attr source throughputSignalMac
attr title "throughputMetricMac, last"
scalar RSUScenario.node[20].nic.mac1609_4 throughputMetricMac:count 28743
attr source throughputSignalMac
attr title "throughputMetricMac, count"
scalar RSUScenario.node[20].nic.mac1609_4 throughputMetricMac:sum 2463677.4098326
attr source throughputSignalMac
attr title "throughputMetricMac, sum"
scalar RSUScenario.node[20].nic.mac1609_4 throughputMetricMac:mean 85.713996793396
attr source throughputSignalMac
attr title "throughputMetricMac, mean"
scalar RSUScenario.node[20].veinsmobility startTime 98000
scalar RSUScenario.node[20].veinsmobility totalTime 102000
scalar RSUScenario.node[20].veinsmobility stopTime 200000
scalar RSUScenario.node[20].veinsmobility minSpeed 0
scalar RSUScenario.node[20].veinsmobility maxSpeed 9.8554973309629
scalar RSUScenario.node[20].veinsmobility totalDistance 152.42363900794
scalar RSUScenario.node[20].veinsmobility totalCO2Emission 128.61992606896
scalar RSUScenario.node[21].appl generatedWSMs 3
scalar RSUScenario.node[21].appl receivedWSMs 28
scalar RSUScenario.node[21].appl generatedBSMs 989
scalar RSUScenario.node[21].appl receivedBSMs 28084
scalar RSUScenario.node[21].appl generatedWSAs 2
scalar RSUScenario.node[21].appl receivedWSAs 63
scalar RSUScenario.node[21].appl beaconInterval 0.1
scalar RSUScenario.node[21].nic.phy80211p busyTime 0.054579313131345
scalar RSUScenario.node[21].nic.phy80211p ncollisions 0
scalar RSUScenario.node[21].nic.mac1609_4 throughputMetricMac 140.91013760303
scalar RSUScenario.node[21].nic.mac1609_4 throughputMbps 0.12378022605772
scalar RSUScenario.node[21].nic.mac1609_4 throughputControlMbps 0
scalar RSUScenario.node[21].nic.mac1609_4 receivedFramesLowerMsg 28175
scalar RSUScenario.node[21].nic.mac1609_4 receivedBitsLowerPackets 0
scalar RSUScenario.node[21].nic.mac1609_4 receivedBitsLoserWsm 0
scalar RSUScenario.node[21].nic.mac1609_4 packetsNotForMe 0
scalar RSUScenario.node[21].nic.mac1609_4 receivedTotalBits 24749872
scalar RSUScenario.node[21].nic.mac1609_4 collisionsPktNonDecoded 0
scalar RSUScenario.node[21].nic.mac1609_4 chUtilizationCCH 0.191007
scalar RSUScenario.node[21].nic.mac1609_4 chUtilizationSCH1 0
scalar RSUScenario.node[21].nic.mac1609_4 chUtilizationSCH2 0.000699
scalar RSUScenario.node[21].nic.mac1609_4 chUtilizationSCH3 0
scalar RSUScenario.node[21].nic.mac1609_4 chUtilizationSCH4 0
scalar RSUScenario.node[21].nic.mac1609_4 chUtilizationHPPS 0
scalar RSUScenario.node[21].nic.mac1609_4 chUtilizationCRIT_SOL 0
scalar RSUScenario.node[21].nic.mac1609_4 previousSignalQualityCCH 100
scalar RSUScenario.node[21].nic.mac1609_4 previousSignalQualitySCH1 0
scalar RSUScenario.node[21].nic.mac1609_4 previousSignalQualitySCH2 100
scalar RSUScenario.node[21].nic.mac1609_4 previousSignalQualitySCH3 0
scalar RSUScenario.node[21].nic.mac1609_4 previousSignalQualitySCH4 0
scalar RSUScenario.node[21].nic.mac1609_4 chPacketsCCH 991
scalar RSUScenario.node[21].nic.mac1609_4 chPacketsSCH1 0
scalar RSUScenario.node[21].nic.mac1609_4 chPacketsSCH2 3
scalar RSUScenario.node[21].nic.mac1609_4 chPacketsSCH3 0
scalar RSUScenario.node[21].nic.mac1609_4 chPacketsSCH4 0
scalar RSUScenario.node[21].nic.mac1609_4 ReceivedUnicastPackets 0
scalar RSUScenario.node[21].nic.mac1609_4 ReceivedBroadcasts 28175
scalar RSUScenario.node[21].nic.mac1609_4 SentPackets 994
scalar RSUScenario.node[21].nic.mac1609_4 SentAcknowledgements 0
scalar RSUScenario.node[21].nic.mac1609_4 SNIRLostPackets 3
scalar RSUScenario.node[21].nic.mac1609_4 RXTXLostPackets 0
scalar RSUScenario.node[21].nic.mac1609_4 TotalLostPackets 3
scalar RSUScenario.node[21].nic.mac1609_4 DroppedPacketsInMac 0
scalar RSUScenario.node[21].nic.mac1609_4 TooLittleTime 0
scalar RSUScenario.node[21].nic.mac1609_4 TimesIntoBackoff 994
scalar RSUScenario.node[21].nic.mac1609_4 SlotsBackoff 1460
scalar RSUScenario.node[21].nic.mac1609_4 NumInternalContention 0
scalar RSUScenario.node[21].nic.mac1609_4 totalBusyTime 5.725688439037
scalar RSUScenario.node[21].nic.mac1609_4 throughputMetricMac:last 140.91013760303
attr source throughputSignalMac
attr title "throughputMetricMac, last"
scalar RSUScenario.node[21].nic.mac1609_4 throughputMetricMac:count 28175
attr source throughputSignalMac
attr title "throughputMetricMac, count"
scalar RSUScenario.node[21].nic.mac1609_4 throughputMetricMac:sum 2355344.4938147
attr source throughputSignalMac
attr title "throughputMetricMac, sum"
scalar RSUScenario.node[21].nic.mac1609_4 throughputMetricMac:mean 83.596965175321
attr source throughputSignalMac
attr title "throughputMetricMac, mean"
scalar RSUScenario.node[21].veinsmobility startTime 101000
scalar RSUScenario.node[21].veinsmobility totalTime 99000
scalar RSUScenario.node[21].veinsmobility stopTime 200000
scalar RSUScenario.node[21].veinsmobility minSpeed 0
scalar RSUScenario.node[21].veinsmobility maxSpeed 8.5447925259565
scalar RSUScenario.node[21].veinsmobility totalDistance 144.34916147203
scalar RSUScenario.node[21].veinsmobility totalCO2Emission 118.86766946719
scalar RSUScenario.node[22].appl generatedWSMs 1
scalar RSUScenario.node[22].appl receivedWSMs 30
scalar RSUScenario.node[22].appl generatedBSMs 969
scalar RSUScenario.node[22].appl receivedBSMs 27695
scalar RSUScenario.node[22].appl generatedWSAs 3
scalar RSUScenario.node[22].appl receivedWSAs 62
scalar RSUScenario.node[22].appl beaconInterval 0.1
scalar RSUScenario.node[22].nic.phy80211p busyTime 0.054938804123744
scalar RSUScenario.node[22].nic.phy80211p ncollisions 0
scalar RSUScenario.node[22].nic.mac1609_4 throughputMetricMac 138.96965370545
scalar RSUScenario.node[22].nic.mac1609_4 throughputMbps 0.12207884178429
scalar RSUScenario.node[22].nic.mac1609_4 throughputControlMbps 0
scalar RSUScenario.node[22].nic.mac1609_4 receivedFramesLowerMsg 27787
scalar RSUScenario.node[22].nic.mac1609_4 receivedBitsLowerPackets 0
scalar RSUScenario.node[22].nic.mac1609_4 receivedBitsLoserWsm 0
scalar RSUScenario.node[22].nic.mac1609_4 packetsNotForMe 0
scalar RSUScenario.node[22].nic.mac1609_4 receivedTotalBits 24409680
scalar RSUScenario.node[22].nic.mac1609_4 collisionsPktNonDecoded 0
scalar RSUScenario.node[22].nic.mac1609_4 chUtilizationCCH 0.187212
scalar RSUScenario.node[22].nic.mac1609_4 chUtilizationSCH1 0
scalar RSUScenario.node[22].nic.mac1609_4 chUtilizationSCH2 0.000233
scalar RSUScenario.node[22].nic.mac1609_4 chUtilizationSCH3 0
scalar RSUScenario.node[22].nic.mac1609_4 chUtilizationSCH4 0
scalar RSUScenario.node[22].nic.mac1609_4 chUtilizationHPPS 0
scalar RSUScenario.node[22].nic.mac1609_4 chUtilizationCRIT_SOL 0
scalar RSUScenario.node[22].nic.mac1609_4 previousSignalQualityCCH 100
scalar RSUScenario.node[22].nic.mac1609_4 previousSignalQualitySCH1 0
scalar RSUScenario.node[22].nic.mac1609_4 previousSignalQualitySCH2 100
scalar RSUScenario.node[22].nic.mac1609_4 previousSignalQualitySCH3 0
scalar RSUScenario.node[22].nic.mac1609_4 previousSignalQualitySCH4 0
scalar RSUScenario.node[22].nic.mac1609_4 chPacketsCCH 972
scalar RSUScenario.node[22].nic.mac1609_4 chPacketsSCH1 0
scalar RSUScenario.node[22].nic.mac1609_4 chPacketsSCH2 0
scalar RSUScenario.node[22].nic.mac1609_4 chPacketsSCH3 0
scalar RSUScenario.node[22].nic.mac1609_4 chPacketsSCH4 0
scalar RSUScenario.node[22].nic.mac1609_4 ReceivedUnicastPackets 0
scalar RSUScenario.node[22].nic.mac1609_4 ReceivedBroadcasts 27787
scalar RSUScenario.node[22].nic.mac1609_4 SentPackets 973
scalar RSUScenario.node[22].nic.mac1609_4 SentAcknowledgements 0
scalar RSUScenario.node[22].nic.mac1609_4 SNIRLostPackets 3
scalar RSUScenario.node[22].nic.mac1609_4 RXTXLostPackets 0
scalar RSUScenario.node[22].nic.mac1609_4 TotalLostPackets 3
scalar RSUScenario.node[22].nic.mac1609_4 DroppedPacketsInMac 0
scalar RSUScenario.node[22].nic.mac1609_4 TooLittleTime 0
scalar RSUScenario.node[22].nic.mac1609_4 TimesIntoBackoff 974
scalar RSUScenario.node[22].nic.mac1609_4 SlotsBackoff 1502
scalar RSUScenario.node[22].nic.mac1609_4 NumInternalContention 0
scalar RSUScenario.node[22].nic.mac1609_4 totalBusyTime 5.72890297364
scalar RSUScenario.node[22].nic.mac1609_4 throughputMetricMac:last 138.96965370545
attr source throughputSignalMac
attr title "throughputMetricMac, last"
scalar RSUScenario.node[22].nic.mac1609_4 throughputMetricMac:count 27787
attr source throughputSignalMac
attr title "throughputMetricMac, count"
scalar RSUScenario.node[22].nic.mac1609_4 throughputMetricMac:sum 2282802.163165
attr source throughputSignalMac
attr title "throughputMetricMac, sum"
scalar RSUScenario.node[22].nic.mac1609_4 throughputMetricMac:mean 82.153602877785
attr source throughputSignalMac
attr title "throughputMetricMac, mean"
scalar RSUScenario.node[22].veinsmobility startTime 103000
scalar RSUScenario.node[22].veinsmobility totalTime 97000
scalar RSUScenario.node[22].veinsmobility stopTime 200000
scalar RSUScenario.node[22].veinsmobility minSpeed 0
scalar RSUScenario.node[22].veinsmobility maxSpeed 7.6265488707437
scalar RSUScenario.node[22].veinsmobility totalDistance 137.68261085865
scalar RSUScenario.node[22].veinsmobility totalCO2Emission 115.25284542644
scalar RSUScenario.node[23].appl generatedWSMs 1
scalar RSUScenario.node[23].appl receivedWSMs 30
scalar RSUScenario.node[23].appl generatedBSMs 939
scalar RSUScenario.node[23].appl receivedBSMs 27076
scalar RSUScenario.node[23].appl generatedWSAs 2
scalar RSUScenario.node[23].appl receivedWSAs 63
scalar RSUScenario.node[23].appl beaconInterval 0.1
scalar RSUScenario.node[23].nic.phy80211p busyTime 0.05542851063833
scalar RSUScenario.node[23].nic.phy80211p ncollisions 0
scalar RSUScenario.node[23].nic.mac1609_4 throughputMetricMac 135.87888296781
scalar RSUScenario.node[23].nic.mac1609_4 throughputMbps 0.1193549625375
scalar RSUScenario.node[23].nic.mac1609_4 throughputControlMbps 0
scalar RSUScenario.node[23].nic.mac1609_4 receivedFramesLowerMsg 27169
scalar RSUScenario.node[23].nic.mac1609_4 receivedBitsLowerPackets 0
scalar RSUScenario.node[23].nic.mac1609_4 receivedBitsLoserWsm 0
scalar RSUScenario.node[23].nic.mac1609_4 packetsNotForMe 0
scalar RSUScenario.node[23].nic.mac1609_4 receivedTotalBits 23865040
scalar RSUScenario.node[23].nic.mac1609_4 collisionsPktNonDecoded 0
scalar RSUScenario.node[23].nic.mac1609_4 chUtilizationCCH 0.181357
scalar RSUScenario.node[23].nic.mac1609_4 chUtilizationSCH1 0
scalar RSUScenario.node[23].nic.mac1609_4 chUtilizationSCH2 0.000233
scalar RSUScenario.node[23].nic.mac1609_4 chUtilizationSCH3 0
scalar RSUScenario.node[23].nic.mac1609_4 chUtilizationSCH4 0
scalar RSUScenario.node[23].nic.mac1609_4 chUtilizationHPPS 0
scalar RSUScenario.node[23].nic.mac1609_4 chUtilizationCRIT_SOL 0
scalar RSUScenario.node[23].nic.mac1609_4 previousSignalQualityCCH 100
scalar RSUScenario.node[23].nic.mac1609_4 previousSignalQualitySCH1 0
scalar RSUScenario.node[23].nic.mac1609_4 previousSignalQualitySCH2 100
scalar RSUScenario.node[23].nic.mac1609_4 previousSignalQualitySCH3 0
scalar RSUScenario.node[23].nic.mac1609_4 previousSignalQualitySCH4 0
scalar RSUScenario.node[23].nic.mac1609_4 chPacketsCCH 941
scalar RSUScenario.node[23].nic.mac1609_4 chPacketsSCH1 0
scalar RSUScenario.node[23].nic.mac1609_4 chPacketsSCH2 0
scalar RSUScenario.node[23].nic.mac1609_4 chPacketsSCH3 0
scalar RSUScenario.node[23].nic.mac1609_4 chPacketsSCH4 0
scalar RSUScenario.node[23].nic.mac1609_4 ReceivedUnicastPackets 0
scalar RSUScenario.node[23].nic.mac1609_4 ReceivedBroadcasts 27169
scalar RSUScenario.node[23].nic.mac1609_4 SentPackets 942
scalar RSUScenario.node[23].nic.mac1609_4 SentAcknowledgements 0
scalar RSUScenario.node[23].nic.mac1609_4 SNIRLostPackets 3
scalar RSUScenario.node[23].nic.mac1609_4 RXTXLostPackets 0
scalar RSUScenario.node[23].nic.mac1609_4 TotalLostPackets 3
scalar RSUScenario.node[23].nic.mac1609_4 DroppedPacketsInMac 0
scalar RSUScenario.node[23].nic.mac1609_4 TooLittleTime 0
scalar RSUScenario.node[23].nic.mac1609_4 TimesIntoBackoff 943
scalar RSUScenario.node[23].nic.mac1609_4 SlotsBackoff 1408
scalar RSUScenario.node[23].nic.mac1609_4 NumInternalContention 0
scalar RSUScenario.node[23].nic.mac1609_4 totalBusyTime 5.623141263889
scalar RSUScenario.node[23].nic.mac1609_4 throughputMetricMac:last 135.87888296781
attr source throughputSignalMac
attr title "throughputMetricMac, last"
scalar RSUScenario.node[23].nic.mac1609_4 throughputMetricMac:count 27169
attr source throughputSignalMac
attr title "throughputMetricMac, count"
scalar RSUScenario.node[23].nic.mac1609_4 throughputMetricMac:sum 2170546.2645464
attr source throughputSignalMac
attr title "throughputMetricMac, sum"
scalar RSUScenario.node[23].nic.mac1609_4 throughputMetricMac:mean 79.890546746161
attr source throughputSignalMac
attr title "throughputMetricMac, mean"
scalar RSUScenario.node[23].veinsmobility startTime 106000
scalar RSUScenario.node[23].veinsmobility totalTime 94000
scalar RSUScenario.node[23].veinsmobility stopTime 200000
scalar RSUScenario.node[23].veinsmobility minSpeed 0
scalar RSUScenario.node[23].veinsmobility maxSpeed 6.7403223326175
scalar RSUScenario.node[23].veinsmobility totalDistance 129.28623039961
scalar RSUScenario.node[23].veinsmobility totalCO2Emission 109.57458477886
scalar RSUScenario.node[6].appl generatedWSMs 1
scalar RSUScenario.node[6].appl receivedWSMs 46
scalar RSUScenario.node[6].appl generatedBSMs 1779
scalar RSUScenario.node[6].appl receivedBSMs 37289
scalar RSUScenario.node[6].appl generatedWSAs 3
scalar RSUScenario.node[6].appl receivedWSAs 98
scalar RSUScenario.node[6].appl beaconInterval 0.1
scalar RSUScenario.node[6].nic.phy80211p busyTime 0.040354606741601
scalar RSUScenario.node[6].nic.phy80211p ncollisions 2
scalar RSUScenario.node[6].nic.mac1609_4 throughputMetricMac 187.21168338688
scalar RSUScenario.node[6].nic.mac1609_4 throughputMbps 0.16440571645659
scalar RSUScenario.node[6].nic.mac1609_4 throughputControlMbps 0
scalar RSUScenario.node[6].nic.mac1609_4 receivedFramesLowerMsg 37433
scalar RSUScenario.node[6].nic.mac1609_4 receivedBitsLowerPackets 0
scalar RSUScenario.node[6].nic.mac1609_4 receivedBitsLoserWsm 0
scalar RSUScenario.node[6].nic.mac1609_4 packetsNotForMe 0
scalar RSUScenario.node[6].nic.mac1609_4 receivedTotalBits 32872944
scalar RSUScenario.node[6].nic.mac1609_4 collisionsPktNonDecoded 0
scalar RSUScenario.node[6].nic.mac1609_4 chUtilizationCCH 0.343542
scalar RSUScenario.node[6].nic.mac1609_4 chUtilizationSCH1 0
scalar RSUScenario.node[6].nic.mac1609_4 chUtilizationSCH2 0
scalar RSUScenario.node[6].nic.mac1609_4 chUtilizationSCH3 0.000233
scalar RSUScenario.node[6].nic.mac1609_4 chUtilizationSCH4 0
scalar RSUScenario.node[6].nic.mac1609_4 chUtilizationHPPS 0
scalar RSUScenario.node[6].nic.mac1609_4 chUtilizationCRIT_SOL 0
scalar RSUScenario.node[6].nic.mac1609_4 previousSignalQualityCCH 100
scalar RSUScenario.node[6].nic.mac1609_4 previousSignalQualitySCH1 0
scalar RSUScenario.node[6].nic.mac1609_4 previousSignalQualitySCH2 0
scalar RSUScenario.node[6].nic.mac1609_4 previousSignalQualitySCH3 100
scalar RSUScenario.node[6].nic.mac1609_4 previousSignalQualitySCH4 0
scalar RSUScenario.node[6].nic.mac1609_4 chPacketsCCH 1782
scalar RSUScenario.node[6].nic.mac1609_4 chPacketsSCH1 0
scalar RSUScenario.node[6].nic.mac1609_4 chPacketsSCH2 0
scalar RSUScenario.node[6].nic.mac1609_4 chPacketsSCH3 0
scalar RSUScenario.node[6].nic.mac1609_4 chPacketsSCH4 0
scalar RSUScenario.node[6].nic.mac1609_4 ReceivedUnicastPackets 0
scalar RSUScenario.node[6].nic.mac1609_4 ReceivedBroadcasts 37433
scalar RSUScenario.node[6].nic.mac1609_4 SentPackets 1783
scalar RSUScenario.node[6].nic.mac1609_4 SentAcknowledgements 0
scalar RSUScenario.node[6].nic.mac1609_4 SNIRLostPackets 34
scalar RSUScenario.node[6].nic.mac1609_4 RXTXLostPackets 0
scalar RSUScenario.node[6].nic.mac1609_4 TotalLostPackets 34
scalar RSUScenario.node[6].nic.mac1609_4 DroppedPacketsInMac 0
scalar RSUScenario.node[6].nic.mac1609_4 TooLittleTime 0
scalar RSUScenario.node[6].nic.mac1609_4 TimesIntoBackoff 1784
scalar RSUScenario.node[6].nic.mac1609_4 SlotsBackoff 2684
scalar RSUScenario.node[6].nic.mac1609_4 NumInternalContention 0
scalar RSUScenario.node[6].nic.mac1609_4 totalBusyTime 9.458905766505
scalar RSUScenario.node[6].nic.mac1609_4 throughputMetricMac:last 187.21168338688
attr source throughputSignalMac
attr title "throughputMetricMac, last"
scalar RSUScenario.node[6].nic.mac1609_4 throughputMetricMac:count 37433
attr source throughputSignalMac
attr title "throughputMetricMac, count"
scalar RSUScenario.node[6].nic.mac1609_4 throughputMetricMac:sum 4644253.0058613
attr source throughputSignalMac
attr title "throughputMetricMac, sum"
scalar RSUScenario.node[6].nic.mac1609_4 throughputMetricMac:mean 124.06841572573
attr source throughputSignalMac
attr title "throughputMetricMac, mean"
scalar RSUScenario.node[6].veinsmobility startTime 22000
scalar RSUScenario.node[6].veinsmobility totalTime 178000
scalar RSUScenario.node[6].veinsmobility stopTime 200000
scalar RSUScenario.node[6].veinsmobility minSpeed 0.98094131815177
scalar RSUScenario.node[6].veinsmobility maxSpeed 13.793682518269
scalar RSUScenario.node[6].veinsmobility totalDistance 337.56467839437
scalar RSUScenario.node[6].veinsmobility totalCO2Emission 239.94738452086
scalar RSUScenario.node[24].appl generatedWSMs 1
scalar RSUScenario.node[24].appl receivedWSMs 30
scalar RSUScenario.node[24].appl generatedBSMs 909
scalar RSUScenario.node[24].appl receivedBSMs 26427
scalar RSUScenario.node[24].appl generatedWSAs 3
scalar RSUScenario.node[24].appl receivedWSAs 62
scalar RSUScenario.node[24].appl beaconInterval 0.1
scalar RSUScenario.node[24].nic.phy80211p busyTime 0.055885802197834
scalar RSUScenario.node[24].nic.phy80211p ncollisions 0
scalar RSUScenario.node[24].nic.mac1609_4 throughputMetricMac 132.62807233341
scalar RSUScenario.node[24].nic.mac1609_4 throughputMbps 0.11649825017694
scalar RSUScenario.node[24].nic.mac1609_4 throughputControlMbps 0
scalar RSUScenario.node[24].nic.mac1609_4 receivedFramesLowerMsg 26519
scalar RSUScenario.node[24].nic.mac1609_4 receivedBitsLowerPackets 0
scalar RSUScenario.node[24].nic.mac1609_4 receivedBitsLoserWsm 0
scalar RSUScenario.node[24].nic.mac1609_4 packetsNotForMe 0
scalar RSUScenario.node[24].nic.mac1609_4 receivedTotalBits 23293840
scalar RSUScenario.node[24].nic.mac1609_4 collisionsPktNonDecoded 0
scalar RSUScenario.node[24].nic.mac1609_4 chUtilizationCCH 0.175632
scalar RSUScenario.node[24].nic.mac1609_4 chUtilizationSCH1 0
scalar RSUScenario.node[24].nic.mac1609_4 chUtilizationSCH2 0.000233
scalar RSUScenario.node[24].nic.mac1609_4 chUtilizationSCH3 0
scalar RSUScenario.node[24].nic.mac1609_4 chUtilizationSCH4 0
scalar RSUScenario.node[24].nic.mac1609_4 chUtilizationHPPS 0
scalar RSUScenario.node[24].nic.mac1609_4 chUtilizationCRIT_SOL 0
scalar RSUScenario.node[24].nic.mac1609_4 previousSignalQualityCCH 100
scalar RSUScenario.node[24].nic.mac1609_4 previousSignalQualitySCH1 0
scalar RSUScenario.node[24].nic.mac1609_4 previousSignalQualitySCH2 100
scalar RSUScenario.node[24].nic.mac1609_4 previousSignalQualitySCH3 0
scalar RSUScenario.node[24].nic.mac1609_4 previousSignalQualitySCH4 0
scalar RSUScenario.node[24].nic.mac1609_4 chPacketsCCH 912
scalar RSUScenario.node[24].nic.mac1609_4 chPacketsSCH1 0
scalar RSUScenario.node[24].nic.mac1609_4 chPacketsSCH2 0
scalar RSUScenario.node[24].nic.mac1609_4 chPacketsSCH3 0
scalar RSUScenario.node[24].nic.mac1609_4 chPacketsSCH4 0
scalar RSUScenario.node[24].nic.mac1609_4 ReceivedUnicastPackets 0
scalar RSUScenario.node[24].nic.mac1609_4 ReceivedBroadcasts 26519
scalar RSUScenario.node[24].nic.mac1609_4 SentPackets 913
scalar RSUScenario.node[24].nic.mac1609_4 SentAcknowledgements 0
scalar RSUScenario.node[24].nic.mac1609_4 SNIRLostPackets 3
scalar RSUScenario.node[24].nic.mac1609_4 RXTXLostPackets 0
scalar RSUScenario.node[24].nic.mac1609_4 TotalLostPackets 3
scalar RSUScenario.node[24].nic.mac1609_4 DroppedPacketsInMac 0
scalar RSUScenario.node[24].nic.mac1609_4 TooLittleTime 0
scalar RSUScenario.node[24].nic.mac1609_4 TimesIntoBackoff 914
scalar RSUScenario.node[24].nic.mac1609_4 SlotsBackoff 1366
scalar RSUScenario.node[24].nic.mac1609_4 NumInternalContention 0
scalar RSUScenario.node[24].nic.mac1609_4 totalBusyTime 5.567213693711
scalar RSUScenario.node[24].nic.mac1609_4 throughputMetricMac:last 132.62807233341
attr source throughputSignalMac
attr title "throughputMetricMac, last"
scalar RSUScenario.node[24].nic.mac1609_4 throughputMetricMac:count 26519
attr source throughputSignalMac
attr title "throughputMetricMac, count"
scalar RSUScenario.node[24].nic.mac1609_4 throughputMetricMac:sum 2056436.9855793
attr source throughputSignalMac
attr title "throughputMetricMac, sum"
scalar RSUScenario.node[24].nic.mac1609_4 throughputMetricMac:mean 77.545796809053
attr source throughputSignalMac
attr title "throughputMetricMac, mean"
scalar RSUScenario.node[24].veinsmobility startTime 109000
scalar RSUScenario.node[24].veinsmobility totalTime 91000
scalar RSUScenario.node[24].veinsmobility stopTime 200000
scalar RSUScenario.node[24].veinsmobility minSpeed 0
scalar RSUScenario.node[24].veinsmobility maxSpeed 5.9430106001603
scalar RSUScenario.node[24].veinsmobility totalDistance 121.39510846041
scalar RSUScenario.node[24].veinsmobility totalCO2Emission 104.83172222377
scalar RSUScenario.node[25].appl generatedWSMs 1
scalar RSUScenario.node[25].appl receivedWSMs 12
scalar RSUScenario.node[25].appl generatedBSMs 599
scalar RSUScenario.node[25].appl receivedBSMs 19248
scalar RSUScenario.node[25].appl generatedWSAs 3
scalar RSUScenario.node[25].appl receivedWSAs 33
scalar RSUScenario.node[25].appl beaconInterval 0.1
scalar RSUScenario.node[25].nic.phy80211p busyTime 0.061682933333358
scalar RSUScenario.node[25].nic.phy80211p ncollisions 0
scalar RSUScenario.node[25].nic.mac1609_4 throughputMetricMac 96.489060653405
scalar RSUScenario.node[25].nic.mac1609_4 throughputMbps 0.084791783803349
scalar RSUScenario.node[25].nic.mac1609_4 throughputControlMbps 0
scalar RSUScenario.node[25].nic.mac1609_4 receivedFramesLowerMsg 19293
scalar RSUScenario.node[25].nic.mac1609_4 receivedBitsLowerPackets 0
scalar RSUScenario.node[25].nic.mac1609_4 receivedBitsLoserWsm 0
scalar RSUScenario.node[25].nic.mac1609_4 packetsNotForMe 0
scalar RSUScenario.node[25].nic.mac1609_4 receivedTotalBits 16954128
scalar RSUScenario.node[25].nic.mac1609_4 collisionsPktNonDecoded 0
scalar RSUScenario.node[25].nic.mac1609_4 chUtilizationCCH 0.115802
scalar RSUScenario.node[25].nic.mac1609_4 chUtilizationSCH1 0.000233
scalar RSUScenario.node[25].nic.mac1609_4 chUtilizationSCH2 0
scalar RSUScenario.node[25].nic.mac1609_4 chUtilizationSCH3 0
scalar RSUScenario.node[25].nic.mac1609_4 chUtilizationSCH4 0
scalar RSUScenario.node[25].nic.mac1609_4 chUtilizationHPPS 0
scalar RSUScenario.node[25].nic.mac1609_4 chUtilizationCRIT_SOL 0
scalar RSUScenario.node[25].nic.mac1609_4 previousSignalQualityCCH 100
scalar RSUScenario.node[25].nic.mac1609_4 previousSignalQualitySCH1 100
scalar RSUScenario.node[25].nic.mac1609_4 previousSignalQualitySCH2 0
scalar RSUScenario.node[25].nic.mac1609_4 previousSignalQualitySCH3 0
scalar RSUScenario.node[25].nic.mac1609_4 previousSignalQualitySCH4 0
scalar RSUScenario.node[25].nic.mac1609_4 chPacketsCCH 602
scalar RSUScenario.node[25].nic.mac1609_4 chPacketsSCH1 0
scalar RSUScenario.node[25].nic.mac1609_4 chPacketsSCH2 0
scalar RSUScenario.node[25].nic.mac1609_4 chPacketsSCH3 0
scalar RSUScenario.node[25].nic.mac1609_4 chPacketsSCH4 0
scalar RSUScenario.node[25].nic.mac1609_4 ReceivedUnicastPackets 0
scalar RSUScenario.node[25].nic.mac1609_4 ReceivedBroadcasts 19293
scalar RSUScenario.node[25].nic.mac1609_4 SentPackets 603
scalar RSUScenario.node[25].nic.mac1609_4 SentAcknowledgements 0
scalar RSUScenario.node[25].nic.mac1609_4 SNIRLostPackets 2
scalar RSUScenario.node[25].nic.mac1609_4 RXTXLostPackets 0
scalar RSUScenario.node[25].nic.mac1609_4 TotalLostPackets 2
scalar RSUScenario.node[25].nic.mac1609_4 DroppedPacketsInMac 0
scalar RSUScenario.node[25].nic.mac1609_4 TooLittleTime 0
scalar RSUScenario.node[25].nic.mac1609_4 TimesIntoBackoff 633
scalar RSUScenario.node[25].nic.mac1609_4 SlotsBackoff 982
scalar RSUScenario.node[25].nic.mac1609_4 NumInternalContention 0
scalar RSUScenario.node[25].nic.mac1609_4 totalBusyTime 3.88732714321
scalar RSUScenario.node[25].nic.mac1609_4 throughputMetricMac:last 96.489060653405
attr source throughputSignalMac
attr title "throughputMetricMac, last"
scalar RSUScenario.node[25].nic.mac1609_4 throughputMetricMac:count 19293
attr source throughputSignalMac
attr title "throughputMetricMac, count"
scalar RSUScenario.node[25].nic.mac1609_4 throughputMetricMac:sum 1033200.2655439
attr source throughputSignalMac
attr title "throughputMetricMac, sum"
scalar RSUScenario.node[25].nic.mac1609_4 throughputMetricMac:mean 53.553115925149
attr source throughputSignalMac
attr title "throughputMetricMac, mean"
scalar RSUScenario.node[25].veinsmobility startTime 140000
scalar RSUScenario.node[25].veinsmobility totalTime 60000
scalar RSUScenario.node[25].veinsmobility stopTime 200000
scalar RSUScenario.node[25].veinsmobility minSpeed 0.68042719191989
scalar RSUScenario.node[25].veinsmobility maxSpeed 5.4218828293063
scalar RSUScenario.node[25].veinsmobility totalDistance 114.01584884393
scalar RSUScenario.node[25].veinsmobility totalCO2Emission 72.107433417441
scalar RSUScenario.node[26].appl generatedWSMs 1
scalar RSUScenario.node[26].appl receivedWSMs 12
scalar RSUScenario.node[26].appl generatedBSMs 569
scalar RSUScenario.node[26].appl receivedBSMs 18549
scalar RSUScenario.node[26].appl generatedWSAs 3
scalar RSUScenario.node[26].appl receivedWSAs 33
scalar RSUScenario.node[26].appl beaconInterval 0.1
scalar RSUScenario.node[26].nic.phy80211p busyTime 0.062574877193006
scalar RSUScenario.node[26].nic.phy80211p ncollisions 0
scalar RSUScenario.node[26].nic.mac1609_4 throughputMetricMac 92.993188919222
scalar RSUScenario.node[26].nic.mac1609_4 throughputMbps 0.081715416677271
scalar RSUScenario.node[26].nic.mac1609_4 throughputControlMbps 0
scalar RSUScenario.node[26].nic.mac1609_4 receivedFramesLowerMsg 18594
scalar RSUScenario.node[26].nic.mac1609_4 receivedBitsLowerPackets 0
scalar RSUScenario.node[26].nic.mac1609_4 receivedBitsLoserWsm 0
scalar RSUScenario.node[26].nic.mac1609_4 packetsNotForMe 0
scalar RSUScenario.node[26].nic.mac1609_4 receivedTotalBits 16339008
scalar RSUScenario.node[26].nic.mac1609_4 collisionsPktNonDecoded 0
scalar RSUScenario.node[26].nic.mac1609_4 chUtilizationCCH 0.110012
scalar RSUScenario.node[26].nic.mac1609_4 chUtilizationSCH1 0.000233
scalar RSUScenario.node[26].nic.mac1609_4 chUtilizationSCH2 0
scalar RSUScenario.node[26].nic.mac1609_4 chUtilizationSCH3 0
scalar RSUScenario.node[26].nic.mac1609_4 chUtilizationSCH4 0
scalar RSUScenario.node[26].nic.mac1609_4 chUtilizationHPPS 0
scalar RSUScenario.node[26].nic.mac1609_4 chUtilizationCRIT_SOL 0
scalar RSUScenario.node[26].nic.mac1609_4 previousSignalQualityCCH 100
scalar RSUScenario.node[26].nic.mac1609_4 previousSignalQualitySCH1 100
scalar RSUScenario.node[26].nic.mac1609_4 previousSignalQualitySCH2 0
scalar RSUScenario.node[26].nic.mac1609_4 previousSignalQualitySCH3 0
scalar RSUScenario.node[26].nic.mac1609_4 previousSignalQualitySCH4 0
scalar RSUScenario.node[26].nic.mac1609_4 chPacketsCCH 572
scalar RSUScenario.node[26].nic.mac1609_4 chPacketsSCH1 1
scalar RSUScenario.node[26].nic.mac1609_4 chPacketsSCH2 0
scalar RSUScenario.node[26].nic.mac1609_4 chPacketsSCH3 0
scalar RSUScenario.node[26].nic.mac1609_4 chPacketsSCH4 0
scalar RSUScenario.node[26].nic.mac1609_4 ReceivedUnicastPackets 0
scalar RSUScenario.node[26].nic.mac1609_4 ReceivedBroadcasts 18594
scalar RSUScenario.node[26].nic.mac1609_4 SentPackets 573
scalar RSUScenario.node[26].nic.mac1609_4 SentAcknowledgements 0
scalar RSUScenario.node[26].nic.mac1609_4 SNIRLostPackets 2
scalar RSUScenario.node[26].nic.mac1609_4 RXTXLostPackets 0
scalar RSUScenario.node[26].nic.mac1609_4 TotalLostPackets 2
scalar RSUScenario.node[26].nic.mac1609_4 DroppedPacketsInMac 0
scalar RSUScenario.node[26].nic.mac1609_4 TooLittleTime 0
scalar RSUScenario.node[26].nic.mac1609_4 TimesIntoBackoff 573
scalar RSUScenario.node[26].nic.mac1609_4 SlotsBackoff 841
scalar RSUScenario.node[26].nic.mac1609_4 NumInternalContention 0
scalar RSUScenario.node[26].nic.mac1609_4 totalBusyTime 3.850562083428
scalar RSUScenario.node[26].nic.mac1609_4 throughputMetricMac:last 92.993188919222
attr source throughputSignalMac
attr title "throughputMetricMac, last"
scalar RSUScenario.node[26].nic.mac1609_4 throughputMetricMac:count 18594
attr source throughputSignalMac
attr title "throughputMetricMac, count"
scalar RSUScenario.node[26].nic.mac1609_4 throughputMetricMac:sum 955287.56130757
attr source throughputSignalMac
attr title "throughputMetricMac, sum"
scalar RSUScenario.node[26].nic.mac1609_4 throughputMetricMac:mean 51.376119248552
attr source throughputSignalMac
attr title "throughputMetricMac, mean"
scalar RSUScenario.node[26].veinsmobility startTime 143000
scalar RSUScenario.node[26].veinsmobility totalTime 57000
scalar RSUScenario.node[26].veinsmobility stopTime 200000
scalar RSUScenario.node[26].veinsmobility minSpeed 0.81150968343936
scalar RSUScenario.node[26].veinsmobility maxSpeed 5.3908081853904
scalar RSUScenario.node[26].veinsmobility totalDistance 106.65007352073
scalar RSUScenario.node[26].veinsmobility totalCO2Emission 66.485420994761
scalar RSUScenario.node[27].appl generatedWSMs 1
scalar RSUScenario.node[27].appl receivedWSMs 12
scalar RSUScenario.node[27].appl generatedBSMs 549
scalar RSUScenario.node[27].appl receivedBSMs 18060
scalar RSUScenario.node[27].appl generatedWSAs 3
scalar RSUScenario.node[27].appl receivedWSAs 33
scalar RSUScenario.node[27].appl beaconInterval 0.1
scalar RSUScenario.node[27].nic.phy80211p busyTime 0.063139054545478
scalar RSUScenario.node[27].nic.phy80211p ncollisions 0
scalar RSUScenario.node[27].nic.mac1609_4 throughputMetricMac 90.547579079475
scalar RSUScenario.node[27].nic.mac1609_4 throughputMbps 0.079563280018294
scalar RSUScenario.node[27].nic.mac1609_4 throughputControlMbps 0
scalar RSUScenario.node[27].nic.mac1609_4 receivedFramesLowerMsg 18105
scalar RSUScenario.node[27].nic.mac1609_4 receivedBitsLowerPackets 0
scalar RSUScenario.node[27].nic.mac1609_4 receivedBitsLoserWsm 0
scalar RSUScenario.node[27].nic.mac1609_4 packetsNotForMe 0
scalar RSUScenario.node[27].nic.mac1609_4 receivedTotalBits 15908688
scalar RSUScenario.node[27].nic.mac1609_4 collisionsPktNonDecoded 0
scalar RSUScenario.node[27].nic.mac1609_4 chUtilizationCCH 0.106152
scalar RSUScenario.node[27].nic.mac1609_4 chUtilizationSCH1 0.000233
scalar RSUScenario.node[27].nic.mac1609_4 chUtilizationSCH2 0
scalar RSUScenario.node[27].nic.mac1609_4 chUtilizationSCH3 0
scalar RSUScenario.node[27].nic.mac1609_4 chUtilizationSCH4 0
scalar RSUScenario.node[27].nic.mac1609_4 chUtilizationHPPS 0
scalar RSUScenario.node[27].nic.mac1609_4 chUtilizationCRIT_SOL 0
scalar RSUScenario.node[27].nic.mac1609_4 previousSignalQualityCCH 100
scalar RSUScenario.node[27].nic.mac1609_4 previousSignalQualitySCH1 100
scalar RSUScenario.node[27].nic.mac1609_4 previousSignalQualitySCH2 0
scalar RSUScenario.node[27].nic.mac1609_4 previousSignalQualitySCH3 0
scalar RSUScenario.node[27].nic.mac1609_4 previousSignalQualitySCH4 0
scalar RSUScenario.node[27].nic.mac1609_4 chPacketsCCH 552
scalar RSUScenario.node[27].nic.mac1609_4 chPacketsSCH1 0
scalar RSUScenario.node[27].nic.mac1609_4 chPacketsSCH2 0
scalar RSUScenario.node[27].nic.mac1609_4 chPacketsSCH3 0
scalar RSUScenario.node[27].nic.mac1609_4 chPacketsSCH4 0
scalar RSUScenario.node[27].nic.mac1609_4 ReceivedUnicastPackets 0
scalar RSUScenario.node[27].nic.mac1609_4 ReceivedBroadcasts 18105
scalar RSUScenario.node[27].nic.mac1609_4 SentPackets 553
scalar RSUScenario.node[27].nic.mac1609_4 SentAcknowledgements 0
scalar RSUScenario.node[27].nic.mac1609_4 SNIRLostPackets 1
[...]
scalar RSUScenario.node[12].nic.mac1609_4 SentPackets 1505
scalar RSUScenario.node[12].nic.mac1609_4 SentAcknowledgements 0
scalar RSUScenario.node[12].nic.mac1609_4 SNIRLostPackets 15
scalar RSUScenario.node[12].nic.mac1609_4 RXTXLostPackets 0
scalar RSUScenario.node[12].nic.mac1609_4 TotalLostPackets 15
scalar RSUScenario.node[12].nic.mac1609_4 DroppedPacketsInMac 0
scalar RSUScenario.node[12].nic.mac1609_4 TooLittleTime 0
scalar RSUScenario.node[12].nic.mac1609_4 TimesIntoBackoff 1505
scalar RSUScenario.node[12].nic.mac1609_4 SlotsBackoff 2160
scalar RSUScenario.node[12].nic.mac1609_4 NumInternalContention 0
scalar RSUScenario.node[12].nic.mac1609_4 totalBusyTime 7.317920377236
scalar RSUScenario.node[12].nic.mac1609_4 throughputMetricMac:last 176.03889757467
attr source throughputSignalMac
attr title "throughputMetricMac, last"
scalar RSUScenario.node[12].nic.mac1609_4 throughputMetricMac:count 35199
attr source throughputSignalMac
attr title "throughputMetricMac, count"
scalar RSUScenario.node[12].nic.mac1609_4 throughputMetricMac:sum 3948988.7736588
attr source throughputSignalMac
attr title "throughputMetricMac, sum"
scalar RSUScenario.node[12].nic.mac1609_4 throughputMetricMac:mean 112.19036829622
attr source throughputSignalMac
attr title "throughputMetricMac, mean"
scalar RSUScenario.node[12].veinsmobility startTime 50000
scalar RSUScenario.node[12].veinsmobility totalTime 150000
scalar RSUScenario.node[12].veinsmobility stopTime 200000
scalar RSUScenario.node[12].veinsmobility minSpeed 0
scalar RSUScenario.node[12].veinsmobility maxSpeed 7.4105448994872
scalar RSUScenario.node[12].veinsmobility totalDistance 218.62111679437
scalar RSUScenario.node[12].veinsmobility totalCO2Emission 179.95103440512
scalar RSUScenario.node[13].appl generatedWSMs 1
scalar RSUScenario.node[13].appl receivedWSMs 27
scalar RSUScenario.node[13].appl generatedBSMs 1169
scalar RSUScenario.node[13].appl receivedBSMs 31126
scalar RSUScenario.node[13].appl generatedWSAs 3
scalar RSUScenario.node[13].appl receivedWSAs 62
scalar RSUScenario.node[13].appl beaconInterval 0.1
scalar RSUScenario.node[13].nic.phy80211p busyTime 0.051192341880374
scalar RSUScenario.node[13].nic.phy80211p ncollisions 2
scalar RSUScenario.node[13].nic.mac1609_4 throughputMetricMac 156.11392900257
scalar RSUScenario.node[13].nic.mac1609_4 throughputMbps 0.13716244320742
scalar RSUScenario.node[13].nic.mac1609_4 throughputControlMbps 0
scalar RSUScenario.node[13].nic.mac1609_4 receivedFramesLowerMsg 31215
scalar RSUScenario.node[13].nic.mac1609_4 receivedBitsLowerPackets 0
scalar RSUScenario.node[13].nic.mac1609_4 receivedBitsLoserWsm 0
scalar RSUScenario.node[13].nic.mac1609_4 packetsNotForMe 0
scalar RSUScenario.node[13].nic.mac1609_4 receivedTotalBits 27425648
scalar RSUScenario.node[13].nic.mac1609_4 collisionsPktNonDecoded 0
scalar RSUScenario.node[13].nic.mac1609_4 chUtilizationCCH 0.225812
scalar RSUScenario.node[13].nic.mac1609_4 chUtilizationSCH1 0
scalar RSUScenario.node[13].nic.mac1609_4 chUtilizationSCH2 0.000233
scalar RSUScenario.node[13].nic.mac1609_4 chUtilizationSCH3 0
scalar RSUScenario.node[13].nic.mac1609_4 chUtilizationSCH4 0
scalar RSUScenario.node[13].nic.mac1609_4 chUtilizationHPPS 0
scalar RSUScenario.node[13].nic.mac1609_4 chUtilizationCRIT_SOL 0
scalar RSUScenario.node[13].nic.mac1609_4 previousSignalQualityCCH 100
scalar RSUScenario.node[13].nic.mac1609_4 previousSignalQualitySCH1 0
scalar RSUScenario.node[13].nic.mac1609_4 previousSignalQualitySCH2 100
scalar RSUScenario.node[13].nic.mac1609_4 previousSignalQualitySCH3 0
scalar RSUScenario.node[13].nic.mac1609_4 previousSignalQualitySCH4 0
scalar RSUScenario.node[13].nic.mac1609_4 chPacketsCCH 1172
scalar RSUScenario.node[13].nic.mac1609_4 chPacketsSCH1 0
scalar RSUScenario.node[13].nic.mac1609_4 chPacketsSCH2 1
scalar RSUScenario.node[13].nic.mac1609_4 chPacketsSCH3 0
scalar RSUScenario.node[13].nic.mac1609_4 chPacketsSCH4 0
scalar RSUScenario.node[13].nic.mac1609_4 ReceivedUnicastPackets 0
scalar RSUScenario.node[13].nic.mac1609_4 ReceivedBroadcasts 31215
scalar RSUScenario.node[13].nic.mac1609_4 SentPackets 1173
scalar RSUScenario.node[13].nic.mac1609_4 SentAcknowledgements 0
scalar RSUScenario.node[13].nic.mac1609_4 SNIRLostPackets 15
scalar RSUScenario.node[13].nic.mac1609_4 RXTXLostPackets 0
scalar RSUScenario.node[13].nic.mac1609_4 TotalLostPackets 15
scalar RSUScenario.node[13].nic.mac1609_4 DroppedPacketsInMac 0
scalar RSUScenario.node[13].nic.mac1609_4 TooLittleTime 0
scalar RSUScenario.node[13].nic.mac1609_4 TimesIntoBackoff 1173
scalar RSUScenario.node[13].nic.mac1609_4 SlotsBackoff 1760
scalar RSUScenario.node[13].nic.mac1609_4 NumInternalContention 0
scalar RSUScenario.node[13].nic.mac1609_4 totalBusyTime 6.587180130597
scalar RSUScenario.node[13].nic.mac1609_4 throughputMetricMac:last 156.11392900257
attr source throughputSignalMac
attr title "throughputMetricMac, last"
scalar RSUScenario.node[13].nic.mac1609_4 throughputMetricMac:count 31215
attr source throughputSignalMac
attr title "throughputMetricMac, count"
scalar RSUScenario.node[13].nic.mac1609_4 throughputMetricMac:sum 2962537.3649618
attr source throughputSignalMac
attr title "throughputMetricMac, sum"
scalar RSUScenario.node[13].nic.mac1609_4 throughputMetricMac:mean 94.907492069895
attr source throughputSignalMac
attr title "throughputMetricMac, mean"
scalar RSUScenario.node[13].veinsmobility startTime 83000
scalar RSUScenario.node[13].veinsmobility totalTime 117000
scalar RSUScenario.node[13].veinsmobility stopTime 200000
scalar RSUScenario.node[13].veinsmobility minSpeed 0.00096499577547671
scalar RSUScenario.node[13].veinsmobility maxSpeed 7.1800269404833
scalar RSUScenario.node[13].veinsmobility totalDistance 209.47179765824
scalar RSUScenario.node[13].veinsmobility totalCO2Emission 144.68911034915
scalar RSUScenario.node[2].appl generatedWSMs 1
scalar RSUScenario.node[2].appl receivedWSMs 46
scalar RSUScenario.node[2].appl generatedBSMs 1939
scalar RSUScenario.node[2].appl receivedBSMs 36345
scalar RSUScenario.node[2].appl generatedWSAs 3
scalar RSUScenario.node[2].appl receivedWSAs 98
scalar RSUScenario.node[2].appl beaconInterval 0.1
scalar RSUScenario.node[2].nic.phy80211p busyTime 0.036111917525798
scalar RSUScenario.node[2].nic.phy80211p ncollisions 2
scalar RSUScenario.node[2].nic.mac1609_4 throughputMetricMac 182.49050557795
scalar RSUScenario.node[2].nic.mac1609_4 throughputMbps 0.16025107998571
scalar RSUScenario.node[2].nic.mac1609_4 throughputControlMbps 0
scalar RSUScenario.node[2].nic.mac1609_4 receivedFramesLowerMsg 36489
scalar RSUScenario.node[2].nic.mac1609_4 receivedBitsLowerPackets 0
scalar RSUScenario.node[2].nic.mac1609_4 receivedBitsLoserWsm 0
scalar RSUScenario.node[2].nic.mac1609_4 packetsNotForMe 0
scalar RSUScenario.node[2].nic.mac1609_4 receivedTotalBits 32042224
scalar RSUScenario.node[2].nic.mac1609_4 collisionsPktNonDecoded 0
scalar RSUScenario.node[2].nic.mac1609_4 chUtilizationCCH 0.374422
scalar RSUScenario.node[2].nic.mac1609_4 chUtilizationSCH1 0
scalar RSUScenario.node[2].nic.mac1609_4 chUtilizationSCH2 0
scalar RSUScenario.node[2].nic.mac1609_4 chUtilizationSCH3 0.000233
scalar RSUScenario.node[2].nic.mac1609_4 chUtilizationSCH4 0
scalar RSUScenario.node[2].nic.mac1609_4 chUtilizationHPPS 0
scalar RSUScenario.node[2].nic.mac1609_4 chUtilizationCRIT_SOL 0
scalar RSUScenario.node[2].nic.mac1609_4 previousSignalQualityCCH 100
scalar RSUScenario.node[2].nic.mac1609_4 previousSignalQualitySCH1 0
scalar RSUScenario.node[2].nic.mac1609_4 previousSignalQualitySCH2 0
scalar RSUScenario.node[2].nic.mac1609_4 previousSignalQualitySCH3 100
scalar RSUScenario.node[2].nic.mac1609_4 previousSignalQualitySCH4 0
scalar RSUScenario.node[2].nic.mac1609_4 chPacketsCCH 1942
scalar RSUScenario.node[2].nic.mac1609_4 chPacketsSCH1 0
scalar RSUScenario.node[2].nic.mac1609_4 chPacketsSCH2 0
scalar RSUScenario.node[2].nic.mac1609_4 chPacketsSCH3 0
scalar RSUScenario.node[2].nic.mac1609_4 chPacketsSCH4 0
scalar RSUScenario.node[2].nic.mac1609_4 ReceivedUnicastPackets 0
scalar RSUScenario.node[2].nic.mac1609_4 ReceivedBroadcasts 36489
scalar RSUScenario.node[2].nic.mac1609_4 SentPackets 1943
scalar RSUScenario.node[2].nic.mac1609_4 SentAcknowledgements 0
scalar RSUScenario.node[2].nic.mac1609_4 SNIRLostPackets 54
scalar RSUScenario.node[2].nic.mac1609_4 RXTXLostPackets 0
scalar RSUScenario.node[2].nic.mac1609_4 TotalLostPackets 54
scalar RSUScenario.node[2].nic.mac1609_4 DroppedPacketsInMac 0
scalar RSUScenario.node[2].nic.mac1609_4 TooLittleTime 0
scalar RSUScenario.node[2].nic.mac1609_4 TimesIntoBackoff 1944
scalar RSUScenario.node[2].nic.mac1609_4 SlotsBackoff 2930
scalar RSUScenario.node[2].nic.mac1609_4 NumInternalContention 0
scalar RSUScenario.node[2].nic.mac1609_4 totalBusyTime 10.8316262453
scalar RSUScenario.node[2].nic.mac1609_4 throughputMetricMac:last 182.49050557795
attr source throughputSignalMac
attr title "throughputMetricMac, last"
scalar RSUScenario.node[2].nic.mac1609_4 throughputMetricMac:count 36489
attr source throughputSignalMac
attr title "throughputMetricMac, count"
scalar RSUScenario.node[2].nic.mac1609_4 throughputMetricMac:sum 4556578.1030239
attr source throughputSignalMac
attr title "throughputMetricMac, sum"
scalar RSUScenario.node[2].nic.mac1609_4 throughputMetricMac:mean 124.87538992638
attr source throughputSignalMac
attr title "throughputMetricMac, mean"
scalar RSUScenario.node[2].veinsmobility startTime 6000
scalar RSUScenario.node[2].veinsmobility totalTime 194000
scalar RSUScenario.node[2].veinsmobility stopTime 200000
scalar RSUScenario.node[2].veinsmobility minSpeed 0.75509291509716
scalar RSUScenario.node[2].veinsmobility maxSpeed 13.987930055733
scalar RSUScenario.node[2].veinsmobility totalDistance 512.96064980434
scalar RSUScenario.node[2].veinsmobility totalCO2Emission 270.36112474224
scalar RSUScenario.node[3].appl generatedWSMs 1
scalar RSUScenario.node[3].appl receivedWSMs 46
scalar RSUScenario.node[3].appl generatedBSMs 1889
scalar RSUScenario.node[3].appl receivedBSMs 36516
scalar RSUScenario.node[3].appl generatedWSAs 3
scalar RSUScenario.node[3].appl receivedWSAs 98
scalar RSUScenario.node[3].appl beaconInterval 0.1
scalar RSUScenario.node[3].nic.phy80211p busyTime 0.037240973544999
scalar RSUScenario.node[3].nic.phy80211p ncollisions 2
scalar RSUScenario.node[3].nic.mac1609_4 throughputMetricMac 183.34571889041
scalar RSUScenario.node[3].nic.mac1609_4 throughputMbps 0.16100366770057
scalar RSUScenario.node[3].nic.mac1609_4 throughputControlMbps 0
scalar RSUScenario.node[3].nic.mac1609_4 receivedFramesLowerMsg 36660
scalar RSUScenario.node[3].nic.mac1609_4 receivedBitsLowerPackets 0
scalar RSUScenario.node[3].nic.mac1609_4 receivedBitsLoserWsm 0
scalar RSUScenario.node[3].nic.mac1609_4 packetsNotForMe 0
scalar RSUScenario.node[3].nic.mac1609_4 receivedTotalBits 32192704
scalar RSUScenario.node[3].nic.mac1609_4 collisionsPktNonDecoded 0
scalar RSUScenario.node[3].nic.mac1609_4 chUtilizationCCH 0.364772
scalar RSUScenario.node[3].nic.mac1609_4 chUtilizationSCH1 0
scalar RSUScenario.node[3].nic.mac1609_4 chUtilizationSCH2 0
scalar RSUScenario.node[3].nic.mac1609_4 chUtilizationSCH3 0.000233
scalar RSUScenario.node[3].nic.mac1609_4 chUtilizationSCH4 0
scalar RSUScenario.node[3].nic.mac1609_4 chUtilizationHPPS 0
scalar RSUScenario.node[3].nic.mac1609_4 chUtilizationCRIT_SOL 0
scalar RSUScenario.node[3].nic.mac1609_4 previousSignalQualityCCH 100
scalar RSUScenario.node[3].nic.mac1609_4 previousSignalQualitySCH1 0
scalar RSUScenario.node[3].nic.mac1609_4 previousSignalQualitySCH2 0
scalar RSUScenario.node[3].nic.mac1609_4 previousSignalQualitySCH3 100
scalar RSUScenario.node[3].nic.mac1609_4 previousSignalQualitySCH4 0
scalar RSUScenario.node[3].nic.mac1609_4 chPacketsCCH 1892
scalar RSUScenario.node[3].nic.mac1609_4 chPacketsSCH1 0
scalar RSUScenario.node[3].nic.mac1609_4 chPacketsSCH2 0
scalar RSUScenario.node[3].nic.mac1609_4 chPacketsSCH3 1
scalar RSUScenario.node[3].nic.mac1609_4 chPacketsSCH4 0
scalar RSUScenario.node[3].nic.mac1609_4 ReceivedUnicastPackets 0
scalar RSUScenario.node[3].nic.mac1609_4 ReceivedBroadcasts 36660
scalar RSUScenario.node[3].nic.mac1609_4 SentPackets 1893
scalar RSUScenario.node[3].nic.mac1609_4 SentAcknowledgements 0
scalar RSUScenario.node[3].nic.mac1609_4 SNIRLostPackets 54
scalar RSUScenario.node[3].nic.mac1609_4 RXTXLostPackets 0
scalar RSUScenario.node[3].nic.mac1609_4 TotalLostPackets 54
scalar RSUScenario.node[3].nic.mac1609_4 DroppedPacketsInMac 0
scalar RSUScenario.node[3].nic.mac1609_4 TooLittleTime 0
scalar RSUScenario.node[3].nic.mac1609_4 TimesIntoBackoff 1893
scalar RSUScenario.node[3].nic.mac1609_4 SlotsBackoff 2796
scalar RSUScenario.node[3].nic.mac1609_4 NumInternalContention 0
scalar RSUScenario.node[3].nic.mac1609_4 totalBusyTime 10.42658848287
scalar RSUScenario.node[3].nic.mac1609_4 throughputMetricMac:last 183.34571889041
attr source throughputSignalMac
attr title "throughputMetricMac, last"
scalar RSUScenario.node[3].nic.mac1609_4 throughputMetricMac:count 36660
attr source throughputSignalMac
attr title "throughputMetricMac, count"
scalar RSUScenario.node[3].nic.mac1609_4 throughputMetricMac:sum 4572774.9176435
attr source throughputSignalMac
attr title "throughputMetricMac, sum"
scalar RSUScenario.node[3].nic.mac1609_4 throughputMetricMac:mean 124.73472224887
attr source throughputSignalMac
attr title "throughputMetricMac, mean"
scalar RSUScenario.node[3].veinsmobility startTime 11000
scalar RSUScenario.node[3].veinsmobility totalTime 189000
scalar RSUScenario.node[3].veinsmobility stopTime 200000
scalar RSUScenario.node[3].veinsmobility minSpeed 0.98564389594301
scalar RSUScenario.node[3].veinsmobility maxSpeed 13.979706056794
scalar RSUScenario.node[3].veinsmobility totalDistance 493.42334988291
scalar RSUScenario.node[3].veinsmobility totalCO2Emission 263.12705076468
scalar RSUScenario.manager roiArea 0
scalar RSUScenario.manager activeVehicleCount 39
scalar RSUScenario.manager totalVehicleCount 201
scalar RSUScenario.rsu[0].appl generatedWSMs 17
scalar RSUScenario.rsu[0].appl receivedWSMs 17
scalar RSUScenario.rsu[0].appl generatedBSMs 0
scalar RSUScenario.rsu[0].appl receivedBSMs 27374
scalar RSUScenario.rsu[0].appl generatedWSAs 0
scalar RSUScenario.rsu[0].appl receivedWSAs 101
scalar RSUScenario.rsu[0].appl beaconInterval 0.1
scalar RSUScenario.rsu[0].nic.phy80211p busyTime 0.027557960000017
scalar RSUScenario.rsu[0].nic.phy80211p ncollisions 649
scalar RSUScenario.rsu[0].nic.mac1609_4 ReceivedUnicastPackets 0
scalar RSUScenario.rsu[0].nic.mac1609_4 ReceivedBroadcasts 27492
scalar RSUScenario.rsu[0].nic.mac1609_4 SentPackets 14
scalar RSUScenario.rsu[0].nic.mac1609_4 SentAcknowledgements 0
scalar RSUScenario.rsu[0].nic.mac1609_4 SNIRLostPackets 1278
scalar RSUScenario.rsu[0].nic.mac1609_4 RXTXLostPackets 1
scalar RSUScenario.rsu[0].nic.mac1609_4 TotalLostPackets 1279
scalar RSUScenario.rsu[0].nic.mac1609_4 DroppedPacketsInMac 3
scalar RSUScenario.rsu[0].nic.mac1609_4 TooLittleTime 0
scalar RSUScenario.rsu[0].nic.mac1609_4 TimesIntoBackoff 20
scalar RSUScenario.rsu[0].nic.mac1609_4 SlotsBackoff 28
scalar RSUScenario.rsu[0].nic.mac1609_4 NumInternalContention 0
scalar RSUScenario.rsu[0].nic.mac1609_4 totalBusyTime 5.394086
scalar RSUScenario.metricsApplication.metrics packetsDeliveredToMetrics 201
scalar RSUScenario.metricsApplication.metrics throughputMetric 1.005
scalar RSUScenario.metricsApplication.metrics throughputMetric:last 1.005
attr source throughputSignal
attr title "throughputMetric, last"
scalar RSUScenario.metricsApplication.metrics throughputMetric:count 201
attr source throughputSignal
attr title "throughputMetric, count"
scalar RSUScenario.metricsApplication.metrics throughputMetric:sum 205.87803094812
attr source throughputSignal
attr title "throughputMetric, sum"
scalar RSUScenario.metricsApplication.metrics throughputMetric:mean 1.0242688106872
attr source throughputSignal
attr title "throughputMetric, mean"
scalar RSUScenario.metricsApplication.appl generatedWSMs 0
scalar RSUScenario.metricsApplication.appl receivedWSMs 0
scalar RSUScenario.metricsApplication.appl generatedBSMs 0
scalar RSUScenario.metricsApplication.appl receivedBSMs 0
scalar RSUScenario.metricsApplication.appl generatedWSAs 0
scalar RSUScenario.metricsApplication.appl receivedWSAs 0
scalar RSUScenario.metricsApplication.appl beaconInterval 1
scalar RSUScenario.metricsApplication.nic.phy80211p busyTime 0
scalar RSUScenario.metricsApplication.nic.phy80211p ncollisions 0
scalar RSUScenario.metricsApplication.nic.mac1609_4 throughputMetricMac 0
scalar RSUScenario.metricsApplication.nic.mac1609_4 throughputMbps 0
scalar RSUScenario.metricsApplication.nic.mac1609_4 throughputControlMbps 0
scalar RSUScenario.metricsApplication.nic.mac1609_4 receivedFramesLowerMsg 0
scalar RSUScenario.metricsApplication.nic.mac1609_4 receivedBitsLowerPackets 0
scalar RSUScenario.metricsApplication.nic.mac1609_4 receivedBitsLoserWsm 0
scalar RSUScenario.metricsApplication.nic.mac1609_4 packetsNotForMe 0
scalar RSUScenario.metricsApplication.nic.mac1609_4 receivedTotalBits 0
scalar RSUScenario.metricsApplication.nic.mac1609_4 collisionsPktNonDecoded 0
scalar RSUScenario.metricsApplication.nic.mac1609_4 chUtilizationCCH 0
scalar RSUScenario.metricsApplication.nic.mac1609_4 chUtilizationSCH1 0
scalar RSUScenario.metricsApplication.nic.mac1609_4 chUtilizationSCH2 0
scalar RSUScenario.metricsApplication.nic.mac1609_4 chUtilizationSCH3 0
scalar RSUScenario.metricsApplication.nic.mac1609_4 chUtilizationSCH4 0
scalar RSUScenario.metricsApplication.nic.mac1609_4 chUtilizationHPPS 0
scalar RSUScenario.metricsApplication.nic.mac1609_4 chUtilizationCRIT_SOL 0
scalar RSUScenario.metricsApplication.nic.mac1609_4 previousSignalQualityCCH 0
scalar RSUScenario.metricsApplication.nic.mac1609_4 previousSignalQualitySCH1 0
scalar RSUScenario.metricsApplication.nic.mac1609_4 previousSignalQualitySCH2 0
scalar RSUScenario.metricsApplication.nic.mac1609_4 previousSignalQualitySCH3 0
scalar RSUScenario.metricsApplication.nic.mac1609_4 previousSignalQualitySCH4 0
scalar RSUScenario.metricsApplication.nic.mac1609_4 chPacketsCCH 0
scalar RSUScenario.metricsApplication.nic.mac1609_4 chPacketsSCH1 0
scalar RSUScenario.metricsApplication.nic.mac1609_4 chPacketsSCH2 0
scalar RSUScenario.metricsApplication.nic.mac1609_4 chPacketsSCH3 0
scalar RSUScenario.metricsApplication.nic.mac1609_4 chPacketsSCH4 0
scalar RSUScenario.metricsApplication.nic.mac1609_4 ReceivedUnicastPackets 0
scalar RSUScenario.metricsApplication.nic.mac1609_4 ReceivedBroadcasts 0
scalar RSUScenario.metricsApplication.nic.mac1609_4 SentPackets 0
scalar RSUScenario.metricsApplication.nic.mac1609_4 SentAcknowledgements 0
scalar RSUScenario.metricsApplication.nic.mac1609_4 SNIRLostPackets 0
scalar RSUScenario.metricsApplication.nic.mac1609_4 RXTXLostPackets 0
scalar RSUScenario.metricsApplication.nic.mac1609_4 TotalLostPackets 0
scalar RSUScenario.metricsApplication.nic.mac1609_4 DroppedPacketsInMac 0
scalar RSUScenario.metricsApplication.nic.mac1609_4 TooLittleTime 0
scalar RSUScenario.metricsApplication.nic.mac1609_4 TimesIntoBackoff 0
scalar RSUScenario.metricsApplication.nic.mac1609_4 SlotsBackoff 0
scalar RSUScenario.metricsApplication.nic.mac1609_4 NumInternalContention 0
scalar RSUScenario.metricsApplication.nic.mac1609_4 totalBusyTime 100.00018082901
scalar RSUScenario.metricsApplication.nic.mac1609_4 throughputMetricMac:last nan
attr source throughputSignalMac
attr title "throughputMetricMac, last"
scalar RSUScenario.metricsApplication.nic.mac1609_4 throughputMetricMac:count 0
attr source throughputSignalMac
attr title "throughputMetricMac, count"
scalar RSUScenario.metricsApplication.nic.mac1609_4 throughputMetricMac:sum 0
attr source throughputSignalMac
attr title "throughputMetricMac, sum"
scalar RSUScenario.metricsApplication.nic.mac1609_4 throughputMetricMac:mean -nan
attr source throughputSignalMac
attr title "throughputMetricMac, mean"

