version 2
run CCH_SCH_Safety_B_100Bytes_Q_1-0-20180913-04:11:49-3484
attr configname CCH_SCH_Safety_B_100Bytes_Q_1
attr datetime 20180913-04:11:49
attr experiment CCH_SCH_Safety_B_100Bytes_Q_1
attr inifile omnetpp.ini
attr iterationvars $0=1
attr iterationvarsf 1-
attr measurement $0=1
attr network vanets.RSUScenario
attr processid 3484
attr repetition 0
attr replication #0
attr resultdir results
attr runnumber 0
attr seedset 0
param **.debug false
param **.coreDebug false
param *.annotations.draw false
param *.rsu[*].appl.beaconLengthBits 800bit
param *.node[*].appl.beaconLengthBits 800bit
param *.metricsApplication.appl.beaconLengthBits 800bit
param *.node[*].appl.sendBeacons true
param *.rsu[*].appl.sendBeacons false
param *.metricsApplicaiton[*].appl.sendBeacons false
param *.node[*].appl.dataOnSch true
param *.rsu[*].appl.dataOnSch false
param *.metricsApplication[*].appl.dataOnSch false
param *.node[*].appl.sendData true
param *.rsu[*].appl.sendData true
param *.metricsApplication[*].appl.sendData false
param *.node[*].appl.beaconInterval 0.1s
param *.rsu[*].appl.beaconInterval 0.1s
param *.metricsApplication[*].appl.beaconInterval 0.1s
param *.node[*].appl.beaconPriority 3
param *.rsu[*].appl.beaconPriority 3
param *.metricsApplication[*].appl.beaconPriority 3
param *.node[*].appl.dataPriority 2
param *.rsu[*].appl.dataPriority 2
param *.metricsApplication.appl.beaconPriority 2
param *.**.nic.mac1609_4.queueSize 1
param *.**.nic.mac1609_4.useServiceChannel true
param *.manager.launchConfig "xmldoc(\"erlangen.launchd.xml\")"
param **.debug false
param **.coreDebug false
param *.playgroundSizeX 2500m
param *.playgroundSizeY 2500m
param *.playgroundSizeZ 50m
param *.annotations.draw false
param *.obstacles.debug false
param *.obstacles.obstacles "xmldoc(\"config.xml\", \"//AnalogueModel[@type='SimpleObstacleShadowing']/obstacles\")"
param *.world.useTorus false
param *.world.use2D false
param *.manager.updateInterval 1s
param *.manager.host "\"localhost\""
param *.manager.port 9999
param *.manager.autoShutdown true
param *.manager.launchConfig "xmldoc(\"erlangen.launchd.xml\")"
param *.manager.moduleType "\"vanets.CarWithMetrics\""
param *.manager.moduleName "\"node\""
param *.manager.moduleDisplayString "\"\""
param *.manager.margin 25
param *.manager.numVehicles 5
param *.manager.debug true
param *.rsu[0].mobility.x 2000
param *.rsu[0].mobility.y 2000
param *.rsu[0].mobility.z 3
param *.rsu[*].applType "\"TraCIDemoRSU11p\""
param *.rsu[*].appl.headerLength "80 bit"
param *.rsu[*].appl.sendBeacons false
param *.rsu[*].appl.dataOnSch false
param *.rsu[*].appl.beaconInterval 1s
param *.rsu[*].appl.beaconUserPriority 7
param *.rsu[*].appl.dataUserPriority 5
param *.metricsApplication.applType "\"TraCIDemoRSU11p\""
param *.metricsApplication.appl.debug false
param *.metricsApplication.appl.headerLength "80 bit"
param *.metricsApplication.appl.sendBeacons false
param *.metricsApplication.appl.dataOnSch false
param *.metricsApplication.appl.beaconInterval 1s
param *.metricsApplication.appl.beaconUserPriority 7
param *.metricsApplication.appl.dataUserPriority 2
param *.connectionManager.sendDirect true
param *.connectionManager.maxInterfDist 2600m
param *.connectionManager.drawMaxIntfDist false
param *.**.nic.mac1609_4.useServiceChannel false
param *.**.nic.mac1609_4.txPower 100mW
param *.**.nic.mac1609_4.bitrate 6Mbps
param *.**.nic.phy80211p.sensitivity -89dBm
param *.**.nic.mac1609_4.queueSize 1
param *.**.nic.phy80211p.useThermalNoise true
param *.**.nic.phy80211p.thermalNoise -110dBm
param *.**.nic.phy80211p.decider "xmldoc(\"config.xml\", \"/root/Decider[@type='Decider80211p']\")"
param *.**.nic.phy80211p.decider.collectCollisionStats true
param *.**.nic.phy80211p.analogueModels "xmldoc(\"config.xml\")"
param *.**.nic.phy80211p.usePropagationDelay true
param *.**.nic.phy80211p.collectCollisionStatistics true
param *.**.nic.phy80211p.antenna "xmldoc(\"antenna.xml\", \"/root/Antenna[@id='monopole']\")"
param *.node[*].applType "\"TraCIDemo11p\""
param *.node[*].appl.headerLength "80 bit"
param *.node[*].appl.sendBeacons false
param *.node[*].appl.dataOnSch false
param *.node[*].appl.beaconInterval 1s
param *.node[*].veinsmobilityType.debug true
param *.node[*].veinsmobility.x 0
param *.node[*].veinsmobility.y 0
param *.node[*].veinsmobility.z 1.895
param *.node[*0].veinsmobility.accidentCount 1
param *.node[*0].veinsmobility.accidentStart 10s
param *.node[*0].veinsmobility.accidentDuration 30s

scalar RSUScenario.node[1].appl generatedWSMs 1
scalar RSUScenario.node[1].appl receivedWSMs 57
scalar RSUScenario.node[1].appl generatedBSMs 1969
scalar RSUScenario.node[1].appl receivedBSMs 37675
scalar RSUScenario.node[1].appl generatedWSAs 3
scalar RSUScenario.node[1].appl receivedWSAs 103
scalar RSUScenario.node[1].appl beaconInterval 0.1
scalar RSUScenario.node[1].nic.phy80211p busyTime 0.037001299492412
scalar RSUScenario.node[1].nic.phy80211p ncollisions 93
scalar RSUScenario.node[1].nic.mac1609_4 throughputMetricMac 189.22251303246
scalar RSUScenario.node[1].nic.mac1609_4 throughputMbps 0.16616756402491
scalar RSUScenario.node[1].nic.mac1609_4 throughputControlMbps 0
scalar RSUScenario.node[1].nic.mac1609_4 receivedFramesLowerMsg 37835
scalar RSUScenario.node[1].nic.mac1609_4 receivedBitsLowerPackets 0
scalar RSUScenario.node[1].nic.mac1609_4 receivedBitsLoserWsm 0
scalar RSUScenario.node[1].nic.mac1609_4 packetsNotForMe 0
scalar RSUScenario.node[1].nic.mac1609_4 receivedTotalBits 33225168
scalar RSUScenario.node[1].nic.mac1609_4 collisionsPktNonDecoded 0
scalar RSUScenario.node[1].nic.mac1609_4 chUtilizationCCH 0
scalar RSUScenario.node[1].nic.mac1609_4 chUtilizationSCH1 0
scalar RSUScenario.node[1].nic.mac1609_4 chUtilizationSCH2 0
scalar RSUScenario.node[1].nic.mac1609_4 chUtilizationSCH3 0
scalar RSUScenario.node[1].nic.mac1609_4 chUtilizationSCH4 0
scalar RSUScenario.node[1].nic.mac1609_4 chUtilizationHPPS 0
scalar RSUScenario.node[1].nic.mac1609_4 chUtilizationCRIT_SOL 0
scalar RSUScenario.node[1].nic.mac1609_4 previousSignalQualityCCH 0
scalar RSUScenario.node[1].nic.mac1609_4 previousSignalQualitySCH1 0
scalar RSUScenario.node[1].nic.mac1609_4 previousSignalQualitySCH2 0
scalar RSUScenario.node[1].nic.mac1609_4 previousSignalQualitySCH3 0
scalar RSUScenario.node[1].nic.mac1609_4 previousSignalQualitySCH4 0
scalar RSUScenario.node[1].nic.mac1609_4 chPacketsCCH 1972
scalar RSUScenario.node[1].nic.mac1609_4 chPacketsSCH1 0
scalar RSUScenario.node[1].nic.mac1609_4 chPacketsSCH2 1
scalar RSUScenario.node[1].nic.mac1609_4 chPacketsSCH3 0
scalar RSUScenario.node[1].nic.mac1609_4 chPacketsSCH4 0
scalar RSUScenario.node[1].nic.mac1609_4 ReceivedUnicastPackets 0
scalar RSUScenario.node[1].nic.mac1609_4 ReceivedBroadcasts 37835
scalar RSUScenario.node[1].nic.mac1609_4 SentPackets 1973
scalar RSUScenario.node[1].nic.mac1609_4 SentAcknowledgements 0
scalar RSUScenario.node[1].nic.mac1609_4 SNIRLostPackets 188
scalar RSUScenario.node[1].nic.mac1609_4 RXTXLostPackets 0
scalar RSUScenario.node[1].nic.mac1609_4 TotalLostPackets 188
scalar RSUScenario.node[1].nic.mac1609_4 DroppedPacketsInMac 0
scalar RSUScenario.node[1].nic.mac1609_4 TooLittleTime 0
scalar RSUScenario.node[1].nic.mac1609_4 TimesIntoBackoff 1973
scalar RSUScenario.node[1].nic.mac1609_4 SlotsBackoff 2927
scalar RSUScenario.node[1].nic.mac1609_4 NumInternalContention 0
scalar RSUScenario.node[1].nic.mac1609_4 totalBusyTime 12.428560311933
scalar RSUScenario.node[1].nic.mac1609_4 throughputMetricMac:last 189.22251303246
attr source throughputSignalMac
attr title "throughputMetricMac, last"
scalar RSUScenario.node[1].nic.mac1609_4 throughputMetricMac:count 37835
attr source throughputSignalMac
attr title "throughputMetricMac, count"
scalar RSUScenario.node[1].nic.mac1609_4 throughputMetricMac:sum 4821649.368225
attr source throughputSignalMac
attr title "throughputMetricMac, sum"
scalar RSUScenario.node[1].nic.mac1609_4 throughputMetricMac:mean 127.43886264636
attr source throughputSignalMac
attr title "throughputMetricMac, mean"
scalar RSUScenario.node[1].veinsmobility startTime 3000
scalar RSUScenario.node[1].veinsmobility totalTime 197000
scalar RSUScenario.node[1].veinsmobility stopTime 200000
scalar RSUScenario.node[1].veinsmobility minSpeed 1.3195987516439
scalar RSUScenario.node[1].veinsmobility maxSpeed 1.3888888888889
scalar RSUScenario.node[1].veinsmobility totalDistance 266.75224284019
scalar RSUScenario.node[1].veinsmobility totalCO2Emission 230.42600343821
scalar RSUScenario.node[4].appl generatedWSMs 1
scalar RSUScenario.node[4].appl receivedWSMs 57
scalar RSUScenario.node[4].appl generatedBSMs 1879
scalar RSUScenario.node[4].appl receivedBSMs 37578
scalar RSUScenario.node[4].appl generatedWSAs 3
scalar RSUScenario.node[4].appl receivedWSAs 103
scalar RSUScenario.node[4].appl beaconInterval 0.1
scalar RSUScenario.node[4].nic.phy80211p busyTime 0.038653148936197
scalar RSUScenario.node[4].nic.phy80211p ncollisions 73
scalar RSUScenario.node[4].nic.mac1609_4 throughputMetricMac 188.73739125111
scalar RSUScenario.node[4].nic.mac1609_4 throughputMbps 0.16574065685728
scalar RSUScenario.node[4].nic.mac1609_4 throughputControlMbps 0
scalar RSUScenario.node[4].nic.mac1609_4 receivedFramesLowerMsg 37738
scalar RSUScenario.node[4].nic.mac1609_4 receivedBitsLowerPackets 0
scalar RSUScenario.node[4].nic.mac1609_4 receivedBitsLoserWsm 0
scalar RSUScenario.node[4].nic.mac1609_4 packetsNotForMe 0
scalar RSUScenario.node[4].nic.mac1609_4 receivedTotalBits 33139808
scalar RSUScenario.node[4].nic.mac1609_4 collisionsPktNonDecoded 0
scalar RSUScenario.node[4].nic.mac1609_4 chUtilizationCCH 0
scalar RSUScenario.node[4].nic.mac1609_4 chUtilizationSCH1 0
scalar RSUScenario.node[4].nic.mac1609_4 chUtilizationSCH2 0
scalar RSUScenario.node[4].nic.mac1609_4 chUtilizationSCH3 0
scalar RSUScenario.node[4].nic.mac1609_4 chUtilizationSCH4 0
scalar RSUScenario.node[4].nic.mac1609_4 chUtilizationHPPS 0
scalar RSUScenario.node[4].nic.mac1609_4 chUtilizationCRIT_SOL 0
scalar RSUScenario.node[4].nic.mac1609_4 previousSignalQualityCCH 0
scalar RSUScenario.node[4].nic.mac1609_4 previousSignalQualitySCH1 0
scalar RSUScenario.node[4].nic.mac1609_4 previousSignalQualitySCH2 0
scalar RSUScenario.node[4].nic.mac1609_4 previousSignalQualitySCH3 0
scalar RSUScenario.node[4].nic.mac1609_4 previousSignalQualitySCH4 0
scalar RSUScenario.node[4].nic.mac1609_4 chPacketsCCH 1882
scalar RSUScenario.node[4].nic.mac1609_4 chPacketsSCH1 0
scalar RSUScenario.node[4].nic.mac1609_4 chPacketsSCH2 0
scalar RSUScenario.node[4].nic.mac1609_4 chPacketsSCH3 0
scalar RSUScenario.node[4].nic.mac1609_4 chPacketsSCH4 0
scalar RSUScenario.node[4].nic.mac1609_4 ReceivedUnicastPackets 0
scalar RSUScenario.node[4].nic.mac1609_4 ReceivedBroadcasts 37738
scalar RSUScenario.node[4].nic.mac1609_4 SentPackets 1883
scalar RSUScenario.node[4].nic.mac1609_4 SentAcknowledgements 0
scalar RSUScenario.node[4].nic.mac1609_4 SNIRLostPackets 168
scalar RSUScenario.node[4].nic.mac1609_4 RXTXLostPackets 0
scalar RSUScenario.node[4].nic.mac1609_4 TotalLostPackets 168
scalar RSUScenario.node[4].nic.mac1609_4 DroppedPacketsInMac 0
scalar RSUScenario.node[4].nic.mac1609_4 TooLittleTime 0
scalar RSUScenario.node[4].nic.mac1609_4 TimesIntoBackoff 1884
scalar RSUScenario.node[4].nic.mac1609_4 SlotsBackoff 2835
scalar RSUScenario.node[4].nic.mac1609_4 NumInternalContention 0
scalar RSUScenario.node[4].nic.mac1609_4 totalBusyTime 11.308640731807
scalar RSUScenario.node[4].nic.mac1609_4 throughputMetricMac:last 188.73739125111
attr source throughputSignalMac
attr title "throughputMetricMac, last"
scalar RSUScenario.node[4].nic.mac1609_4 throughputMetricMac:count 37738
attr source throughputSignalMac
attr title "throughputMetricMac, count"
scalar RSUScenario.node[4].nic.mac1609_4 throughputMetricMac:sum 4777293.9967388
attr source throughputSignalMac
attr title "throughputMetricMac, sum"
scalar RSUScenario.node[4].nic.mac1609_4 throughputMetricMac:mean 126.59107522229
attr source throughputSignalMac
attr title "throughputMetricMac, mean"
scalar RSUScenario.node[4].veinsmobility startTime 12000
scalar RSUScenario.node[4].veinsmobility totalTime 188000
scalar RSUScenario.node[4].veinsmobility stopTime 200000
scalar RSUScenario.node[4].veinsmobility minSpeed 0.82437053541553
scalar RSUScenario.node[4].veinsmobility maxSpeed 1.3888888888889
scalar RSUScenario.node[4].veinsmobility totalDistance 252.71420418519
scalar RSUScenario.node[4].veinsmobility totalCO2Emission 219.94251658444
scalar RSUScenario.node[0].appl generatedWSMs 3
scalar RSUScenario.node[0].appl receivedWSMs 32
scalar RSUScenario.node[0].appl generatedBSMs 1989
scalar RSUScenario.node[0].appl receivedBSMs 7925
scalar RSUScenario.node[0].appl generatedWSAs 3
scalar RSUScenario.node[0].appl receivedWSAs 36
scalar RSUScenario.node[0].appl beaconInterval 0.1
scalar RSUScenario.node[0].nic.phy80211p busyTime 0.0076951155778888
scalar RSUScenario.node[0].nic.phy80211p ncollisions 0
scalar RSUScenario.node[0].nic.mac1609_4 throughputMetricMac 60.585919305486
scalar RSUScenario.node[0].nic.mac1609_4 throughputMbps 0.053151641191213
scalar RSUScenario.node[0].nic.mac1609_4 throughputControlMbps 0
scalar RSUScenario.node[0].nic.mac1609_4 receivedFramesLowerMsg 7993
scalar RSUScenario.node[0].nic.mac1609_4 receivedBitsLowerPackets 0
scalar RSUScenario.node[0].nic.mac1609_4 receivedBitsLoserWsm 0
scalar RSUScenario.node[0].nic.mac1609_4 packetsNotForMe 0
scalar RSUScenario.node[0].nic.mac1609_4 receivedTotalBits 7012208
scalar RSUScenario.node[0].nic.mac1609_4 collisionsPktNonDecoded 0
scalar RSUScenario.node[0].nic.mac1609_4 chUtilizationCCH 0
scalar RSUScenario.node[0].nic.mac1609_4 chUtilizationSCH1 0
scalar RSUScenario.node[0].nic.mac1609_4 chUtilizationSCH2 0
scalar RSUScenario.node[0].nic.mac1609_4 chUtilizationSCH3 0
scalar RSUScenario.node[0].nic.mac1609_4 chUtilizationSCH4 0
scalar RSUScenario.node[0].nic.mac1609_4 chUtilizationHPPS 0
scalar RSUScenario.node[0].nic.mac1609_4 chUtilizationCRIT_SOL 0
scalar RSUScenario.node[0].nic.mac1609_4 previousSignalQualityCCH 0
scalar RSUScenario.node[0].nic.mac1609_4 previousSignalQualitySCH1 0
scalar RSUScenario.node[0].nic.mac1609_4 previousSignalQualitySCH2 0
scalar RSUScenario.node[0].nic.mac1609_4 previousSignalQualitySCH3 0
scalar RSUScenario.node[0].nic.mac1609_4 previousSignalQualitySCH4 0
scalar RSUScenario.node[0].nic.mac1609_4 chPacketsCCH 1992
scalar RSUScenario.node[0].nic.mac1609_4 chPacketsSCH1 0
scalar RSUScenario.node[0].nic.mac1609_4 chPacketsSCH2 3
scalar RSUScenario.node[0].nic.mac1609_4 chPacketsSCH3 0
scalar RSUScenario.node[0].nic.mac1609_4 chPacketsSCH4 0
scalar RSUScenario.node[0].nic.mac1609_4 ReceivedUnicastPackets 0
scalar RSUScenario.node[0].nic.mac1609_4 ReceivedBroadcasts 7993
scalar RSUScenario.node[0].nic.mac1609_4 SentPackets 1995
scalar RSUScenario.node[0].nic.mac1609_4 SentAcknowledgements 0
scalar RSUScenario.node[0].nic.mac1609_4 SNIRLostPackets 0
scalar RSUScenario.node[0].nic.mac1609_4 RXTXLostPackets 0
scalar RSUScenario.node[0].nic.mac1609_4 TotalLostPackets 0
scalar RSUScenario.node[0].nic.mac1609_4 DroppedPacketsInMac 0
scalar RSUScenario.node[0].nic.mac1609_4 TooLittleTime 0
scalar RSUScenario.node[0].nic.mac1609_4 TimesIntoBackoff 1998
scalar RSUScenario.node[0].nic.mac1609_4 SlotsBackoff 2934
scalar RSUScenario.node[0].nic.mac1609_4 NumInternalContention 0
scalar RSUScenario.node[0].nic.mac1609_4 totalBusyTime 17.790689956423
scalar RSUScenario.node[0].nic.mac1609_4 throughputMetricMac:last 60.585919305486
attr source throughputSignalMac
attr title "throughputMetricMac, last"
scalar RSUScenario.node[0].nic.mac1609_4 throughputMetricMac:count 7993
attr source throughputSignalMac
attr title "throughputMetricMac, count"
scalar RSUScenario.node[0].nic.mac1609_4 throughputMetricMac:sum 451242.00009984
attr source throughputSignalMac
attr title "throughputMetricMac, sum"
scalar RSUScenario.node[0].nic.mac1609_4 throughputMetricMac:mean 56.454647829331
attr source throughputSignalMac
attr title "throughputMetricMac, mean"
scalar RSUScenario.node[0].veinsmobility startTime 1000
scalar RSUScenario.node[0].veinsmobility totalTime 199000
scalar RSUScenario.node[0].veinsmobility stopTime 200000
scalar RSUScenario.node[0].veinsmobility minSpeed 0
scalar RSUScenario.node[0].veinsmobility maxSpeed 13.998128671225
scalar RSUScenario.node[0].veinsmobility totalDistance 2198.0734118155
scalar RSUScenario.node[0].veinsmobility totalCO2Emission 451.91260206671
scalar RSUScenario.node[5].appl generatedWSMs 1
scalar RSUScenario.node[5].appl receivedWSMs 57
scalar RSUScenario.node[5].appl generatedBSMs 1829
scalar RSUScenario.node[5].appl receivedBSMs 37369
scalar RSUScenario.node[5].appl generatedWSAs 3
scalar RSUScenario.node[5].appl receivedWSAs 103
scalar RSUScenario.node[5].appl beaconInterval 0.1
scalar RSUScenario.node[5].nic.phy80211p busyTime 0.0395109508197
scalar RSUScenario.node[5].nic.phy80211p ncollisions 93
scalar RSUScenario.node[5].nic.mac1609_4 throughputMetricMac 187.69212851176
scalar RSUScenario.node[5].nic.mac1609_4 throughputMbps 0.16482082564716
scalar RSUScenario.node[5].nic.mac1609_4 throughputControlMbps 0
scalar RSUScenario.node[5].nic.mac1609_4 receivedFramesLowerMsg 37529
scalar RSUScenario.node[5].nic.mac1609_4 receivedBitsLowerPackets 0
scalar RSUScenario.node[5].nic.mac1609_4 receivedBitsLoserWsm 0
scalar RSUScenario.node[5].nic.mac1609_4 packetsNotForMe 0
scalar RSUScenario.node[5].nic.mac1609_4 receivedTotalBits 32955888
scalar RSUScenario.node[5].nic.mac1609_4 collisionsPktNonDecoded 0
scalar RSUScenario.node[5].nic.mac1609_4 chUtilizationCCH 0
scalar RSUScenario.node[5].nic.mac1609_4 chUtilizationSCH1 0
scalar RSUScenario.node[5].nic.mac1609_4 chUtilizationSCH2 0
scalar RSUScenario.node[5].nic.mac1609_4 chUtilizationSCH3 0
scalar RSUScenario.node[5].nic.mac1609_4 chUtilizationSCH4 0
scalar RSUScenario.node[5].nic.mac1609_4 chUtilizationHPPS 0
scalar RSUScenario.node[5].nic.mac1609_4 chUtilizationCRIT_SOL 0
scalar RSUScenario.node[5].nic.mac1609_4 previousSignalQualityCCH 0
scalar RSUScenario.node[5].nic.mac1609_4 previousSignalQualitySCH1 0
scalar RSUScenario.node[5].nic.mac1609_4 previousSignalQualitySCH2 0
scalar RSUScenario.node[5].nic.mac1609_4 previousSignalQualitySCH3 0
scalar RSUScenario.node[5].nic.mac1609_4 previousSignalQualitySCH4 0
scalar RSUScenario.node[5].nic.mac1609_4 chPacketsCCH 1832
scalar RSUScenario.node[5].nic.mac1609_4 chPacketsSCH1 0
scalar RSUScenario.node[5].nic.mac1609_4 chPacketsSCH2 1
scalar RSUScenario.node[5].nic.mac1609_4 chPacketsSCH3 0
scalar RSUScenario.node[5].nic.mac1609_4 chPacketsSCH4 0
scalar RSUScenario.node[5].nic.mac1609_4 ReceivedUnicastPackets 0
scalar RSUScenario.node[5].nic.mac1609_4 ReceivedBroadcasts 37529
scalar RSUScenario.node[5].nic.mac1609_4 SentPackets 1833
scalar RSUScenario.node[5].nic.mac1609_4 SentAcknowledgements 0
scalar RSUScenario.node[5].nic.mac1609_4 SNIRLostPackets 188
scalar RSUScenario.node[5].nic.mac1609_4 RXTXLostPackets 0
scalar RSUScenario.node[5].nic.mac1609_4 TotalLostPackets 188
scalar RSUScenario.node[5].nic.mac1609_4 DroppedPacketsInMac 0
scalar RSUScenario.node[5].nic.mac1609_4 TooLittleTime 0
scalar RSUScenario.node[5].nic.mac1609_4 TimesIntoBackoff 1836
scalar RSUScenario.node[5].nic.mac1609_4 SlotsBackoff 2830
scalar RSUScenario.node[5].nic.mac1609_4 NumInternalContention 0
scalar RSUScenario.node[5].nic.mac1609_4 totalBusyTime 10.907056345651
scalar RSUScenario.node[5].nic.mac1609_4 throughputMetricMac:last 187.69212851176
attr source throughputSignalMac
attr title "throughputMetricMac, last"
scalar RSUScenario.node[5].nic.mac1609_4 throughputMetricMac:count 37529
attr source throughputSignalMac
attr title "throughputMetricMac, count"
scalar RSUScenario.node[5].nic.mac1609_4 throughputMetricMac:sum 4703877.8796619
attr source throughputSignalMac
attr title "throughputMetricMac, sum"
scalar RSUScenario.node[5].nic.mac1609_4 throughputMetricMac:mean 125.33981400149
attr source throughputSignalMac
attr title "throughputMetricMac, mean"
scalar RSUScenario.node[5].veinsmobility startTime 17000
scalar RSUScenario.node[5].veinsmobility totalTime 183000
scalar RSUScenario.node[5].veinsmobility stopTime 200000
scalar RSUScenario.node[5].veinsmobility minSpeed 0.83774402481715
scalar RSUScenario.node[5].veinsmobility maxSpeed 13.958589120226
scalar RSUScenario.node[5].veinsmobility totalDistance 356.08221082044
scalar RSUScenario.node[5].veinsmobility totalCO2Emission 247.75260550498
scalar RSUScenario.node[14].appl generatedWSMs 1
scalar RSUScenario.node[14].appl receivedWSMs 36
scalar RSUScenario.node[14].appl generatedBSMs 1139
scalar RSUScenario.node[14].appl receivedBSMs 30633
scalar RSUScenario.node[14].appl generatedWSAs 3
scalar RSUScenario.node[14].appl receivedWSAs 64
scalar RSUScenario.node[14].appl beaconInterval 0.1
scalar RSUScenario.node[14].nic.phy80211p busyTime 0.051889684210559
scalar RSUScenario.node[14].nic.phy80211p ncollisions 18
scalar RSUScenario.node[14].nic.mac1609_4 throughputMetricMac 153.70359441866
scalar RSUScenario.node[14].nic.mac1609_4 throughputMbps 0.1350434289183
scalar RSUScenario.node[14].nic.mac1609_4 throughputControlMbps 0
scalar RSUScenario.node[14].nic.mac1609_4 receivedFramesLowerMsg 30733
scalar RSUScenario.node[14].nic.mac1609_4 receivedBitsLowerPackets 0
scalar RSUScenario.node[14].nic.mac1609_4 receivedBitsLoserWsm 0
scalar RSUScenario.node[14].nic.mac1609_4 packetsNotForMe 0
scalar RSUScenario.node[14].nic.mac1609_4 receivedTotalBits 27001904
scalar RSUScenario.node[14].nic.mac1609_4 collisionsPktNonDecoded 0
scalar RSUScenario.node[14].nic.mac1609_4 chUtilizationCCH 0
scalar RSUScenario.node[14].nic.mac1609_4 chUtilizationSCH1 0
scalar RSUScenario.node[14].nic.mac1609_4 chUtilizationSCH2 0
scalar RSUScenario.node[14].nic.mac1609_4 chUtilizationSCH3 0
scalar RSUScenario.node[14].nic.mac1609_4 chUtilizationSCH4 0
scalar RSUScenario.node[14].nic.mac1609_4 chUtilizationHPPS 0
scalar RSUScenario.node[14].nic.mac1609_4 chUtilizationCRIT_SOL 0
scalar RSUScenario.node[14].nic.mac1609_4 previousSignalQualityCCH 0
scalar RSUScenario.node[14].nic.mac1609_4 previousSignalQualitySCH1 0
scalar RSUScenario.node[14].nic.mac1609_4 previousSignalQualitySCH2 0
scalar RSUScenario.node[14].nic.mac1609_4 previousSignalQualitySCH3 0
scalar RSUScenario.node[14].nic.mac1609_4 previousSignalQualitySCH4 0
scalar RSUScenario.node[14].nic.mac1609_4 chPacketsCCH 1142
scalar RSUScenario.node[14].nic.mac1609_4 chPacketsSCH1 0
scalar RSUScenario.node[14].nic.mac1609_4 chPacketsSCH2 1
scalar RSUScenario.node[14].nic.mac1609_4 chPacketsSCH3 0
scalar RSUScenario.node[14].nic.mac1609_4 chPacketsSCH4 0
scalar RSUScenario.node[14].nic.mac1609_4 ReceivedUnicastPackets 0
scalar RSUScenario.node[14].nic.mac1609_4 ReceivedBroadcasts 30733
scalar RSUScenario.node[14].nic.mac1609_4 SentPackets 1143
scalar RSUScenario.node[14].nic.mac1609_4 SentAcknowledgements 0
scalar RSUScenario.node[14].nic.mac1609_4 SNIRLostPackets 113
scalar RSUScenario.node[14].nic.mac1609_4 RXTXLostPackets 0
scalar RSUScenario.node[14].nic.mac1609_4 TotalLostPackets 113
scalar RSUScenario.node[14].nic.mac1609_4 DroppedPacketsInMac 0
scalar RSUScenario.node[14].nic.mac1609_4 TooLittleTime 0
scalar RSUScenario.node[14].nic.mac1609_4 TimesIntoBackoff 1146
scalar RSUScenario.node[14].nic.mac1609_4 SlotsBackoff 1808
scalar RSUScenario.node[14].nic.mac1609_4 NumInternalContention 0
scalar RSUScenario.node[14].nic.mac1609_4 totalBusyTime 6.608507231211
scalar RSUScenario.node[14].nic.mac1609_4 throughputMetricMac:last 153.70359441866
attr source throughputSignalMac
attr title "throughputMetricMac, last"
scalar RSUScenario.node[14].nic.mac1609_4 throughputMetricMac:count 30733
attr source throughputSignalMac
attr title "throughputMetricMac, count"
scalar RSUScenario.node[14].nic.mac1609_4 throughputMetricMac:sum 2864309.1903649
attr source throughputSignalMac
attr title "throughputMetricMac, sum"
scalar RSUScenario.node[14].nic.mac1609_4 throughputMetricMac:mean 93.199791441281
attr source throughputSignalMac
attr title "throughputMetricMac, mean"
scalar RSUScenario.node[14].veinsmobility startTime 86000
scalar RSUScenario.node[14].veinsmobility totalTime 114000
scalar RSUScenario.node[14].veinsmobility stopTime 200000
scalar RSUScenario.node[14].veinsmobility minSpeed 0.44683507437876
scalar RSUScenario.node[14].veinsmobility maxSpeed 7.1334462066043
scalar RSUScenario.node[14].veinsmobility totalDistance 199.48821822597
scalar RSUScenario.node[14].veinsmobility totalCO2Emission 137.46632826726
scalar RSUScenario.node[15].appl generatedWSMs 1
scalar RSUScenario.node[15].appl receivedWSMs 36
scalar RSUScenario.node[15].appl generatedBSMs 1119
scalar RSUScenario.node[15].appl receivedBSMs 30234
scalar RSUScenario.node[15].appl generatedWSAs 3
scalar RSUScenario.node[15].appl receivedWSAs 64
scalar RSUScenario.node[15].appl beaconInterval 0.1
scalar RSUScenario.node[15].nic.phy80211p busyTime 0.05208085714289
scalar RSUScenario.node[15].nic.phy80211p ncollisions 8
scalar RSUScenario.node[15].nic.mac1609_4 throughputMetricMac 151.70809333404
scalar RSUScenario.node[15].nic.mac1609_4 throughputMbps 0.13328738796386
scalar RSUScenario.node[15].nic.mac1609_4 throughputControlMbps 0
scalar RSUScenario.node[15].nic.mac1609_4 receivedFramesLowerMsg 30334
scalar RSUScenario.node[15].nic.mac1609_4 receivedBitsLowerPackets 0
scalar RSUScenario.node[15].nic.mac1609_4 receivedBitsLoserWsm 0
scalar RSUScenario.node[15].nic.mac1609_4 packetsNotForMe 0
scalar RSUScenario.node[15].nic.mac1609_4 receivedTotalBits 26650784
scalar RSUScenario.node[15].nic.mac1609_4 collisionsPktNonDecoded 0
scalar RSUScenario.node[15].nic.mac1609_4 chUtilizationCCH 0
scalar RSUScenario.node[15].nic.mac1609_4 chUtilizationSCH1 0
scalar RSUScenario.node[15].nic.mac1609_4 chUtilizationSCH2 0
scalar RSUScenario.node[15].nic.mac1609_4 chUtilizationSCH3 0
scalar RSUScenario.node[15].nic.mac1609_4 chUtilizationSCH4 0
scalar RSUScenario.node[15].nic.mac1609_4 chUtilizationHPPS 0
scalar RSUScenario.node[15].nic.mac1609_4 chUtilizationCRIT_SOL 0
scalar RSUScenario.node[15].nic.mac1609_4 previousSignalQualityCCH 0
scalar RSUScenario.node[15].nic.mac1609_4 previousSignalQualitySCH1 0
scalar RSUScenario.node[15].nic.mac1609_4 previousSignalQualitySCH2 0
scalar RSUScenario.node[15].nic.mac1609_4 previousSignalQualitySCH3 0
scalar RSUScenario.node[15].nic.mac1609_4 previousSignalQualitySCH4 0
scalar RSUScenario.node[15].nic.mac1609_4 chPacketsCCH 1122
scalar RSUScenario.node[15].nic.mac1609_4 chPacketsSCH1 0
scalar RSUScenario.node[15].nic.mac1609_4 chPacketsSCH2 0
scalar RSUScenario.node[15].nic.mac1609_4 chPacketsSCH3 0
scalar RSUScenario.node[15].nic.mac1609_4 chPacketsSCH4 0
scalar RSUScenario.node[15].nic.mac1609_4 ReceivedUnicastPackets 0
scalar RSUScenario.node[15].nic.mac1609_4 ReceivedBroadcasts 30334
scalar RSUScenario.node[15].nic.mac1609_4 SentPackets 1123
scalar RSUScenario.node[15].nic.mac1609_4 SentAcknowledgements 0
scalar RSUScenario.node[15].nic.mac1609_4 SNIRLostPackets 83
scalar RSUScenario.node[15].nic.mac1609_4 RXTXLostPackets 20
scalar RSUScenario.node[15].nic.mac1609_4 TotalLostPackets 103
scalar RSUScenario.node[15].nic.mac1609_4 DroppedPacketsInMac 0
scalar RSUScenario.node[15].nic.mac1609_4 TooLittleTime 0
scalar RSUScenario.node[15].nic.mac1609_4 TimesIntoBackoff 1133
scalar RSUScenario.node[15].nic.mac1609_4 SlotsBackoff 1683
scalar RSUScenario.node[15].nic.mac1609_4 NumInternalContention 0
scalar RSUScenario.node[15].nic.mac1609_4 totalBusyTime 6.500939157752
scalar RSUScenario.node[15].nic.mac1609_4 throughputMetricMac:last 151.70809333404
attr source throughputSignalMac
attr title "throughputMetricMac, last"
scalar RSUScenario.node[15].nic.mac1609_4 throughputMetricMac:count 30334
attr source throughputSignalMac
attr title "throughputMetricMac, count"
scalar RSUScenario.node[15].nic.mac1609_4 throughputMetricMac:sum 2786952.8418949
attr source throughputSignalMac
attr title "throughputMetricMac, sum"
scalar RSUScenario.node[15].nic.mac1609_4 throughputMetricMac:mean 91.875546973526
attr source throughputSignalMac
attr title "throughputMetricMac, mean"
scalar RSUScenario.node[15].veinsmobility startTime 88000
scalar RSUScenario.node[15].veinsmobility totalTime 112000
scalar RSUScenario.node[15].veinsmobility stopTime 200000
scalar RSUScenario.node[15].veinsmobility minSpeed 0
scalar RSUScenario.node[15].veinsmobility maxSpeed 6.8203385037629
scalar RSUScenario.node[15].veinsmobility totalDistance 191.1297368111
scalar RSUScenario.node[15].veinsmobility totalCO2Emission 135.19762320358
scalar RSUScenario.node[16].appl generatedWSMs 1
scalar RSUScenario.node[16].appl receivedWSMs 36
scalar RSUScenario.node[16].appl generatedBSMs 1099
scalar RSUScenario.node[16].appl receivedBSMs 29898
scalar RSUScenario.node[16].appl generatedWSAs 3
scalar RSUScenario.node[16].appl receivedWSAs 64
scalar RSUScenario.node[16].appl beaconInterval 0.1
scalar RSUScenario.node[16].nic.phy80211p busyTime 0.052470981818214
scalar RSUScenario.node[16].nic.phy80211p ncollisions 5
scalar RSUScenario.node[16].nic.mac1609_4 throughputMetricMac 150.02767136587
scalar RSUScenario.node[16].nic.mac1609_4 throughputMbps 0.13180861663191
scalar RSUScenario.node[16].nic.mac1609_4 throughputControlMbps 0
scalar RSUScenario.node[16].nic.mac1609_4 receivedFramesLowerMsg 29998
scalar RSUScenario.node[16].nic.mac1609_4 receivedBitsLowerPackets 0
scalar RSUScenario.node[16].nic.mac1609_4 receivedBitsLoserWsm 0
scalar RSUScenario.node[16].nic.mac1609_4 packetsNotForMe 0
scalar RSUScenario.node[16].nic.mac1609_4 receivedTotalBits 26355104
scalar RSUScenario.node[16].nic.mac1609_4 collisionsPktNonDecoded 0
scalar RSUScenario.node[16].nic.mac1609_4 chUtilizationCCH 0
scalar RSUScenario.node[16].nic.mac1609_4 chUtilizationSCH1 0
scalar RSUScenario.node[16].nic.mac1609_4 chUtilizationSCH2 0
scalar RSUScenario.node[16].nic.mac1609_4 chUtilizationSCH3 0
scalar RSUScenario.node[16].nic.mac1609_4 chUtilizationSCH4 0
scalar RSUScenario.node[16].nic.mac1609_4 chUtilizationHPPS 0
scalar RSUScenario.node[16].nic.mac1609_4 chUtilizationCRIT_SOL 0
scalar RSUScenario.node[16].nic.mac1609_4 previousSignalQualityCCH 0
scalar RSUScenario.node[16].nic.mac1609_4 previousSignalQualitySCH1 0
scalar RSUScenario.node[16].nic.mac1609_4 previousSignalQualitySCH2 0
scalar RSUScenario.node[16].nic.mac1609_4 previousSignalQualitySCH3 0
scalar RSUScenario.node[16].nic.mac1609_4 previousSignalQualitySCH4 0
scalar RSUScenario.node[16].nic.mac1609_4 chPacketsCCH 1102
scalar RSUScenario.node[16].nic.mac1609_4 chPacketsSCH1 0
scalar RSUScenario.node[16].nic.mac1609_4 chPacketsSCH2 1
scalar RSUScenario.node[16].nic.mac1609_4 chPacketsSCH3 0
scalar RSUScenario.node[16].nic.mac1609_4 chPacketsSCH4 0
scalar RSUScenario.node[16].nic.mac1609_4 ReceivedUnicastPackets 0
scalar RSUScenario.node[16].nic.mac1609_4 ReceivedBroadcasts 29998
scalar RSUScenario.node[16].nic.mac1609_4 SentPackets 1103
scalar RSUScenario.node[16].nic.mac1609_4 SentAcknowledgements 0
scalar RSUScenario.node[16].nic.mac1609_4 SNIRLostPackets 100
scalar RSUScenario.node[16].nic.mac1609_4 RXTXLostPackets 0
scalar RSUScenario.node[16].nic.mac1609_4 TotalLostPackets 100
scalar RSUScenario.node[16].nic.mac1609_4 DroppedPacketsInMac 0
scalar RSUScenario.node[16].nic.mac1609_4 TooLittleTime 0
scalar RSUScenario.node[16].nic.mac1609_4 TimesIntoBackoff 1103
scalar RSUScenario.node[16].nic.mac1609_4 SlotsBackoff 1688
scalar RSUScenario.node[16].nic.mac1609_4 NumInternalContention 0
scalar RSUScenario.node[16].nic.mac1609_4 totalBusyTime 6.621754787303
scalar RSUScenario.node[16].nic.mac1609_4 throughputMetricMac:last 150.02767136587
attr source throughputSignalMac
attr title "throughputMetricMac, last"
scalar RSUScenario.node[16].nic.mac1609_4 throughputMetricMac:count 29998
attr source throughputSignalMac
attr title "throughputMetricMac, count"
scalar RSUScenario.node[16].nic.mac1609_4 throughputMetricMac:sum 2718763.0509894
attr source throughputSignalMac
attr title "throughputMetricMac, sum"
scalar RSUScenario.node[16].nic.mac1609_4 throughputMetricMac:mean 90.631477131456
attr source throughputSignalMac
attr title "throughputMetricMac, mean"
scalar RSUScenario.node[16].veinsmobility startTime 90000
scalar RSUScenario.node[16].veinsmobility totalTime 110000
scalar RSUScenario.node[16].veinsmobility stopTime 200000
scalar RSUScenario.node[16].veinsmobility minSpeed 0.44014457971905
scalar RSUScenario.node[16].veinsmobility maxSpeed 6.3011961638623
scalar RSUScenario.node[16].veinsmobility totalDistance 182.83228921298
scalar RSUScenario.node[16].veinsmobility totalCO2Emission 131.94726579661
scalar RSUScenario.node[17].appl generatedWSMs 1
scalar RSUScenario.node[17].appl receivedWSMs 36
scalar RSUScenario.node[17].appl generatedBSMs 1079
scalar RSUScenario.node[17].appl receivedBSMs 29603
scalar RSUScenario.node[17].appl generatedWSAs 3
scalar RSUScenario.node[17].appl receivedWSAs 64
scalar RSUScenario.node[17].appl beaconInterval 0.1
scalar RSUScenario.node[17].nic.phy80211p busyTime 0.052911111111144
scalar RSUScenario.node[17].nic.phy80211p ncollisions 1
scalar RSUScenario.node[17].nic.mac1609_4 throughputMetricMac 148.55230088656
scalar RSUScenario.node[17].nic.mac1609_4 throughputMbps 0.13051029061014
scalar RSUScenario.node[17].nic.mac1609_4 throughputControlMbps 0
scalar RSUScenario.node[17].nic.mac1609_4 receivedFramesLowerMsg 29703
scalar RSUScenario.node[17].nic.mac1609_4 receivedBitsLowerPackets 0
scalar RSUScenario.node[17].nic.mac1609_4 receivedBitsLoserWsm 0
scalar RSUScenario.node[17].nic.mac1609_4 packetsNotForMe 0
scalar RSUScenario.node[17].nic.mac1609_4 receivedTotalBits 26095504
scalar RSUScenario.node[17].nic.mac1609_4 collisionsPktNonDecoded 0
scalar RSUScenario.node[17].nic.mac1609_4 chUtilizationCCH 0
scalar RSUScenario.node[17].nic.mac1609_4 chUtilizationSCH1 0
scalar RSUScenario.node[17].nic.mac1609_4 chUtilizationSCH2 0
scalar RSUScenario.node[17].nic.mac1609_4 chUtilizationSCH3 0
scalar RSUScenario.node[17].nic.mac1609_4 chUtilizationSCH4 0
scalar RSUScenario.node[17].nic.mac1609_4 chUtilizationHPPS 0
scalar RSUScenario.node[17].nic.mac1609_4 chUtilizationCRIT_SOL 0
scalar RSUScenario.node[17].nic.mac1609_4 previousSignalQualityCCH 0
scalar RSUScenario.node[17].nic.mac1609_4 previousSignalQualitySCH1 0
scalar RSUScenario.node[17].nic.mac1609_4 previousSignalQualitySCH2 0
scalar RSUScenario.node[17].nic.mac1609_4 previousSignalQualitySCH3 0
scalar RSUScenario.node[17].nic.mac1609_4 previousSignalQualitySCH4 0
scalar RSUScenario.node[17].nic.mac1609_4 chPacketsCCH 1082
scalar RSUScenario.node[17].nic.mac1609_4 chPacketsSCH1 0
scalar RSUScenario.node[17].nic.mac1609_4 chPacketsSCH2 0
scalar RSUScenario.node[17].nic.mac1609_4 chPacketsSCH3 0
scalar RSUScenario.node[17].nic.mac1609_4 chPacketsSCH4 0
scalar RSUScenario.node[17].nic.mac1609_4 ReceivedUnicastPackets 0
scalar RSUScenario.node[17].nic.mac1609_4 ReceivedBroadcasts 29703
scalar RSUScenario.node[17].nic.mac1609_4 SentPackets 1083
scalar RSUScenario.node[17].nic.mac1609_4 SentAcknowledgements 0
scalar RSUScenario.node[17].nic.mac1609_4 SNIRLostPackets 96
scalar RSUScenario.node[17].nic.mac1609_4 RXTXLostPackets 0
scalar RSUScenario.node[17].nic.mac1609_4 TotalLostPackets 96
scalar RSUScenario.node[17].nic.mac1609_4 DroppedPacketsInMac 0
scalar RSUScenario.node[17].nic.mac1609_4 TooLittleTime 0
scalar RSUScenario.node[17].nic.mac1609_4 TimesIntoBackoff 1084
scalar RSUScenario.node[17].nic.mac1609_4 SlotsBackoff 1603
scalar RSUScenario.node[17].nic.mac1609_4 NumInternalContention 0
scalar RSUScenario.node[17].nic.mac1609_4 totalBusyTime 6.527557194336
scalar RSUScenario.node[17].nic.mac1609_4 throughputMetricMac:last 148.55230088656
attr source throughputSignalMac
attr title "throughputMetricMac, last"
scalar RSUScenario.node[17].nic.mac1609_4 throughputMetricMac:count 29703
attr source throughputSignalMac
attr title "throughputMetricMac, count"
scalar RSUScenario.node[17].nic.mac1609_4 throughputMetricMac:sum 2657858.5770349
attr source throughputSignalMac
attr title "throughputMetricMac, sum"
scalar RSUScenario.node[17].nic.mac1609_4 throughputMetricMac:mean 89.481149279025
attr source throughputSignalMac
attr title "throughputMetricMac, mean"
scalar RSUScenario.node[17].veinsmobility startTime 92000
scalar RSUScenario.node[17].veinsmobility totalTime 108000
scalar RSUScenario.node[17].veinsmobility stopTime 200000
scalar RSUScenario.node[17].veinsmobility minSpeed 0.2383977351168
scalar RSUScenario.node[17].veinsmobility maxSpeed 5.4657378624806
scalar RSUScenario.node[17].veinsmobility totalDistance 174.82840037133
scalar RSUScenario.node[17].veinsmobility totalCO2Emission 129.3842554114
scalar RSUScenario.node[18].appl generatedWSMs 1
scalar RSUScenario.node[18].appl receivedWSMs 36
scalar RSUScenario.node[18].appl generatedBSMs 1059
scalar RSUScenario.node[18].appl receivedBSMs 29272
scalar RSUScenario.node[18].appl generatedWSAs 3
scalar RSUScenario.node[18].appl receivedWSAs 64
scalar RSUScenario.node[18].appl beaconInterval 0.1
scalar RSUScenario.node[18].nic.phy80211p busyTime 0.053313509433995
scalar RSUScenario.node[18].nic.phy80211p ncollisions 3
scalar RSUScenario.node[18].nic.mac1609_4 throughputMetricMac 146.89688519978
scalar RSUScenario.node[18].nic.mac1609_4 throughputMbps 0.12905352480581
scalar RSUScenario.node[18].nic.mac1609_4 throughputControlMbps 0
scalar RSUScenario.node[18].nic.mac1609_4 receivedFramesLowerMsg 29372
scalar RSUScenario.node[18].nic.mac1609_4 receivedBitsLowerPackets 0
scalar RSUScenario.node[18].nic.mac1609_4 receivedBitsLoserWsm 0
scalar RSUScenario.node[18].nic.mac1609_4 packetsNotForMe 0
scalar RSUScenario.node[18].nic.mac1609_4 receivedTotalBits 25804224
scalar RSUScenario.node[18].nic.mac1609_4 collisionsPktNonDecoded 0
scalar RSUScenario.node[18].nic.mac1609_4 chUtilizationCCH 0
scalar RSUScenario.node[18].nic.mac1609_4 chUtilizationSCH1 0
scalar RSUScenario.node[18].nic.mac1609_4 chUtilizationSCH2 0
scalar RSUScenario.node[18].nic.mac1609_4 chUtilizationSCH3 0
scalar RSUScenario.node[18].nic.mac1609_4 chUtilizationSCH4 0
scalar RSUScenario.node[18].nic.mac1609_4 chUtilizationHPPS 0
scalar RSUScenario.node[18].nic.mac1609_4 chUtilizationCRIT_SOL 0
scalar RSUScenario.node[18].nic.mac1609_4 previousSignalQualityCCH 0
scalar RSUScenario.node[18].nic.mac1609_4 previousSignalQualitySCH1 0
scalar RSUScenario.node[18].nic.mac1609_4 previousSignalQualitySCH2 0
scalar RSUScenario.node[18].nic.mac1609_4 previousSignalQualitySCH3 0
scalar RSUScenario.node[18].nic.mac1609_4 previousSignalQualitySCH4 0
scalar RSUScenario.node[18].nic.mac1609_4 chPacketsCCH 1062
scalar RSUScenario.node[18].nic.mac1609_4 chPacketsSCH1 0
scalar RSUScenario.node[18].nic.mac1609_4 chPacketsSCH2 1
scalar RSUScenario.node[18].nic.mac1609_4 chPacketsSCH3 0
scalar RSUScenario.node[18].nic.mac1609_4 chPacketsSCH4 0
scalar RSUScenario.node[18].nic.mac1609_4 ReceivedUnicastPackets 0
scalar RSUScenario.node[18].nic.mac1609_4 ReceivedBroadcasts 29372
scalar RSUScenario.node[18].nic.mac1609_4 SentPackets 1063
scalar RSUScenario.node[18].nic.mac1609_4 SentAcknowledgements 0
scalar RSUScenario.node[18].nic.mac1609_4 SNIRLostPackets 98
scalar RSUScenario.node[18].nic.mac1609_4 RXTXLostPackets 0
scalar RSUScenario.node[18].nic.mac1609_4 TotalLostPackets 98
scalar RSUScenario.node[18].nic.mac1609_4 DroppedPacketsInMac 0
scalar RSUScenario.node[18].nic.mac1609_4 TooLittleTime 0
scalar RSUScenario.node[18].nic.mac1609_4 TimesIntoBackoff 1063
scalar RSUScenario.node[18].nic.mac1609_4 SlotsBackoff 1601
scalar RSUScenario.node[18].nic.mac1609_4 NumInternalContention 0
scalar RSUScenario.node[18].nic.mac1609_4 totalBusyTime 6.327785653214
scalar RSUScenario.node[18].nic.mac1609_4 throughputMetricMac:last 146.89688519978
attr source throughputSignalMac
attr title "throughputMetricMac, last"
scalar RSUScenario.node[18].nic.mac1609_4 throughputMetricMac:count 29372
attr source throughputSignalMac
attr title "throughputMetricMac, count"
scalar RSUScenario.node[18].nic.mac1609_4 throughputMetricMac:sum 2591461.6759977
attr source throughputSignalMac
attr title "throughputMetricMac, sum"
scalar RSUScenario.node[18].nic.mac1609_4 throughputMetricMac:mean 88.228982568355
attr source throughputSignalMac
attr title "throughputMetricMac, mean"
scalar RSUScenario.node[18].veinsmobility startTime 94000
scalar RSUScenario.node[18].veinsmobility totalTime 106000
scalar RSUScenario.node[18].veinsmobility stopTime 200000
scalar RSUScenario.node[18].veinsmobility minSpeed 0.42773956329504
scalar RSUScenario.node[18].veinsmobility maxSpeed 5.009624306905
scalar RSUScenario.node[18].veinsmobility totalDistance 166.98121524166
scalar RSUScenario.node[18].veinsmobility totalCO2Emission 125.44722950652
scalar RSUScenario.node[19].appl generatedWSMs 1
scalar RSUScenario.node[19].appl receivedWSMs 36
scalar RSUScenario.node[19].appl generatedBSMs 1039
scalar RSUScenario.node[19].appl receivedBSMs 28934
scalar RSUScenario.node[19].appl generatedWSAs 3
scalar RSUScenario.node[19].appl receivedWSAs 64
scalar RSUScenario.node[19].appl beaconInterval 0.1
scalar RSUScenario.node[19].nic.phy80211p busyTime 0.053712923076956
scalar RSUScenario.node[19].nic.phy80211p ncollisions 2
scalar RSUScenario.node[19].nic.mac1609_4 throughputMetricMac 145.2064607257
scalar RSUScenario.node[19].nic.mac1609_4 throughputMbps 0.12756595126864
scalar RSUScenario.node[19].nic.mac1609_4 throughputControlMbps 0
scalar RSUScenario.node[19].nic.mac1609_4 receivedFramesLowerMsg 29034
scalar RSUScenario.node[19].nic.mac1609_4 receivedBitsLowerPackets 0
scalar RSUScenario.node[19].nic.mac1609_4 receivedBitsLoserWsm 0
scalar RSUScenario.node[19].nic.mac1609_4 packetsNotForMe 0
scalar RSUScenario.node[19].nic.mac1609_4 receivedTotalBits 25506784
scalar RSUScenario.node[19].nic.mac1609_4 collisionsPktNonDecoded 0
scalar RSUScenario.node[19].nic.mac1609_4 chUtilizationCCH 0
scalar RSUScenario.node[19].nic.mac1609_4 chUtilizationSCH1 0
scalar RSUScenario.node[19].nic.mac1609_4 chUtilizationSCH2 0
scalar RSUScenario.node[19].nic.mac1609_4 chUtilizationSCH3 0
scalar RSUScenario.node[19].nic.mac1609_4 chUtilizationSCH4 0
scalar RSUScenario.node[19].nic.mac1609_4 chUtilizationHPPS 0
scalar RSUScenario.node[19].nic.mac1609_4 chUtilizationCRIT_SOL 0
scalar RSUScenario.node[19].nic.mac1609_4 previousSignalQualityCCH 0
scalar RSUScenario.node[19].nic.mac1609_4 previousSignalQualitySCH1 0
scalar RSUScenario.node[19].nic.mac1609_4 previousSignalQualitySCH2 0
scalar RSUScenario.node[19].nic.mac1609_4 previousSignalQualitySCH3 0
scalar RSUScenario.node[19].nic.mac1609_4 previousSignalQualitySCH4 0
scalar RSUScenario.node[19].nic.mac1609_4 chPacketsCCH 1042
scalar RSUScenario.node[19].nic.mac1609_4 chPacketsSCH1 0
scalar RSUScenario.node[19].nic.mac1609_4 chPacketsSCH2 0
scalar RSUScenario.node[19].nic.mac1609_4 chPacketsSCH3 0
scalar RSUScenario.node[19].nic.mac1609_4 chPacketsSCH4 0
scalar RSUScenario.node[19].nic.mac1609_4 ReceivedUnicastPackets 0
scalar RSUScenario.node[19].nic.mac1609_4 ReceivedBroadcasts 29034
scalar RSUScenario.node[19].nic.mac1609_4 SentPackets 1043
scalar RSUScenario.node[19].nic.mac1609_4 SentAcknowledgements 0
scalar RSUScenario.node[19].nic.mac1609_4 SNIRLostPackets 97
scalar RSUScenario.node[19].nic.mac1609_4 RXTXLostPackets 0
scalar RSUScenario.node[19].nic.mac1609_4 TotalLostPackets 97
scalar RSUScenario.node[19].nic.mac1609_4 DroppedPacketsInMac 0
scalar RSUScenario.node[19].nic.mac1609_4 TooLittleTime 0
scalar RSUScenario.node[19].nic.mac1609_4 TimesIntoBackoff 1047
scalar RSUScenario.node[19].nic.mac1609_4 SlotsBackoff 1546
scalar RSUScenario.node[19].nic.mac1609_4 NumInternalContention 0
scalar RSUScenario.node[19].nic.mac1609_4 totalBusyTime 6.421818438709
scalar RSUScenario.node[19].nic.mac1609_4 throughputMetricMac:last 145.2064607257
attr source throughputSignalMac
attr title "throughputMetricMac, last"
scalar RSUScenario.node[19].nic.mac1609_4 throughputMetricMac:count 29034
attr source throughputSignalMac
attr title "throughputMetricMac, count"
scalar RSUScenario.node[19].nic.mac1609_4 throughputMetricMac:sum 2524208.8869586
attr source throughputSignalMac
attr title "throughputMetricMac, sum"
scalar RSUScenario.node[19].nic.mac1609_4 throughputMetricMac:mean 86.939756387636
attr source throughputSignalMac
attr title "throughputMetricMac, mean"
scalar RSUScenario.node[19].veinsmobility startTime 96000
scalar RSUScenario.node[19].veinsmobility totalTime 104000
scalar RSUScenario.node[19].veinsmobility stopTime 200000
scalar RSUScenario.node[19].veinsmobility minSpeed 0.43514961487963
scalar RSUScenario.node[19].veinsmobility maxSpeed 4.6532842827868
scalar RSUScenario.node[19].veinsmobility totalDistance 159.6350757384
scalar RSUScenario.node[19].veinsmobility totalCO2Emission 123.1610892824
scalar RSUScenario.node[20].appl generatedWSMs 3
scalar RSUScenario.node[20].appl receivedWSMs 34
scalar RSUScenario.node[20].appl generatedBSMs 1019
scalar RSUScenario.node[20].appl receivedBSMs 28555
scalar RSUScenario.node[20].appl generatedWSAs 3
scalar RSUScenario.node[20].appl receivedWSAs 64
scalar RSUScenario.node[20].appl beaconInterval 0.1
scalar RSUScenario.node[20].nic.phy80211p busyTime 0.054048156862778
scalar RSUScenario.node[20].nic.phy80211p ncollisions 2
scalar RSUScenario.node[20].nic.mac1609_4 throughputMetricMac 143.30098225345
scalar RSUScenario.node[20].nic.mac1609_4 throughputMbps 0.12588688965049
scalar RSUScenario.node[20].nic.mac1609_4 throughputControlMbps 0
scalar RSUScenario.node[20].nic.mac1609_4 receivedFramesLowerMsg 28653
scalar RSUScenario.node[20].nic.mac1609_4 receivedBitsLowerPackets 0
scalar RSUScenario.node[20].nic.mac1609_4 receivedBitsLoserWsm 0
scalar RSUScenario.node[20].nic.mac1609_4 packetsNotForMe 0
scalar RSUScenario.node[20].nic.mac1609_4 receivedTotalBits 25171056
scalar RSUScenario.node[20].nic.mac1609_4 collisionsPktNonDecoded 0
scalar RSUScenario.node[20].nic.mac1609_4 chUtilizationCCH 0
scalar RSUScenario.node[20].nic.mac1609_4 chUtilizationSCH1 0
scalar RSUScenario.node[20].nic.mac1609_4 chUtilizationSCH2 0
scalar RSUScenario.node[20].nic.mac1609_4 chUtilizationSCH3 0
scalar RSUScenario.node[20].nic.mac1609_4 chUtilizationSCH4 0
scalar RSUScenario.node[20].nic.mac1609_4 chUtilizationHPPS 0
scalar RSUScenario.node[20].nic.mac1609_4 chUtilizationCRIT_SOL 0
scalar RSUScenario.node[20].nic.mac1609_4 previousSignalQualityCCH 0
scalar RSUScenario.node[20].nic.mac1609_4 previousSignalQualitySCH1 0
scalar RSUScenario.node[20].nic.mac1609_4 previousSignalQualitySCH2 0
scalar RSUScenario.node[20].nic.mac1609_4 previousSignalQualitySCH3 0
scalar RSUScenario.node[20].nic.mac1609_4 previousSignalQualitySCH4 0
scalar RSUScenario.node[20].nic.mac1609_4 chPacketsCCH 1022
scalar RSUScenario.node[20].nic.mac1609_4 chPacketsSCH1 1
scalar RSUScenario.node[20].nic.mac1609_4 chPacketsSCH2 1
scalar RSUScenario.node[20].nic.mac1609_4 chPacketsSCH3 1
scalar RSUScenario.node[20].nic.mac1609_4 chPacketsSCH4 0
scalar RSUScenario.node[20].nic.mac1609_4 ReceivedUnicastPackets 0
scalar RSUScenario.node[20].nic.mac1609_4 ReceivedBroadcasts 28653
scalar RSUScenario.node[20].nic.mac1609_4 SentPackets 1025
scalar RSUScenario.node[20].nic.mac1609_4 SentAcknowledgements 0
scalar RSUScenario.node[20].nic.mac1609_4 SNIRLostPackets 97
scalar RSUScenario.node[20].nic.mac1609_4 RXTXLostPackets 0
scalar RSUScenario.node[20].nic.mac1609_4 TotalLostPackets 97
scalar RSUScenario.node[20].nic.mac1609_4 DroppedPacketsInMac 0
scalar RSUScenario.node[20].nic.mac1609_4 TooLittleTime 0
scalar RSUScenario.node[20].nic.mac1609_4 TimesIntoBackoff 1025
scalar RSUScenario.node[20].nic.mac1609_4 SlotsBackoff 1599
scalar RSUScenario.node[20].nic.mac1609_4 NumInternalContention 0
scalar RSUScenario.node[20].nic.mac1609_4 totalBusyTime 6.383995423558
scalar RSUScenario.node[20].nic.mac1609_4 throughputMetricMac:last 143.30098225345
attr source throughputSignalMac
attr title "throughputMetricMac, last"
scalar RSUScenario.node[20].nic.mac1609_4 throughputMetricMac:count 28653
attr source throughputSignalMac
attr title "throughputMetricMac, count"
scalar RSUScenario.node[20].nic.mac1609_4 throughputMetricMac:sum 2450410.5630854
attr source throughputSignalMac
attr title "throughputMetricMac, sum"
scalar RSUScenario.node[20].nic.mac1609_4 throughputMetricMac:mean 85.520209509837
attr source throughputSignalMac
attr title "throughputMetricMac, mean"
scalar RSUScenario.node[20].veinsmobility startTime 98000
scalar RSUScenario.node[20].veinsmobility totalTime 102000
scalar RSUScenario.node[20].veinsmobility stopTime 200000
scalar RSUScenario.node[20].veinsmobility minSpeed 0
scalar RSUScenario.node[20].veinsmobility maxSpeed 9.8554973309629
scalar RSUScenario.node[20].veinsmobility totalDistance 152.42363900794
scalar RSUScenario.node[20].veinsmobility totalCO2Emission 128.61992606896
scalar RSUScenario.node[21].appl generatedWSMs 3
scalar RSUScenario.node[21].appl receivedWSMs 34
scalar RSUScenario.node[21].appl generatedBSMs 989
scalar RSUScenario.node[21].appl receivedBSMs 27986
scalar RSUScenario.node[21].appl generatedWSAs 3
scalar RSUScenario.node[21].appl receivedWSAs 64
scalar RSUScenario.node[21].appl beaconInterval 0.1
scalar RSUScenario.node[21].nic.phy80211p busyTime 0.054582464646497
scalar RSUScenario.node[21].nic.phy80211p ncollisions 2
scalar RSUScenario.node[21].nic.mac1609_4 throughputMetricMac 140.45526769236
scalar RSUScenario.node[21].nic.mac1609_4 throughputMbps 0.12338266083676
scalar RSUScenario.node[21].nic.mac1609_4 throughputControlMbps 0
scalar RSUScenario.node[21].nic.mac1609_4 receivedFramesLowerMsg 28084
scalar RSUScenario.node[21].nic.mac1609_4 receivedBitsLowerPackets 0
scalar RSUScenario.node[21].nic.mac1609_4 receivedBitsLoserWsm 0
scalar RSUScenario.node[21].nic.mac1609_4 packetsNotForMe 0
scalar RSUScenario.node[21].nic.mac1609_4 receivedTotalBits 24670336
scalar RSUScenario.node[21].nic.mac1609_4 collisionsPktNonDecoded 0
scalar RSUScenario.node[21].nic.mac1609_4 chUtilizationCCH 0
scalar RSUScenario.node[21].nic.mac1609_4 chUtilizationSCH1 0
scalar RSUScenario.node[21].nic.mac1609_4 chUtilizationSCH2 0
scalar RSUScenario.node[21].nic.mac1609_4 chUtilizationSCH3 0
scalar RSUScenario.node[21].nic.mac1609_4 chUtilizationSCH4 0
scalar RSUScenario.node[21].nic.mac1609_4 chUtilizationHPPS 0
scalar RSUScenario.node[21].nic.mac1609_4 chUtilizationCRIT_SOL 0
scalar RSUScenario.node[21].nic.mac1609_4 previousSignalQualityCCH 0
scalar RSUScenario.node[21].nic.mac1609_4 previousSignalQualitySCH1 0
scalar RSUScenario.node[21].nic.mac1609_4 previousSignalQualitySCH2 0
scalar RSUScenario.node[21].nic.mac1609_4 previousSignalQualitySCH3 0
scalar RSUScenario.node[21].nic.mac1609_4 previousSignalQualitySCH4 0
scalar RSUScenario.node[21].nic.mac1609_4 chPacketsCCH 992
scalar RSUScenario.node[21].nic.mac1609_4 chPacketsSCH1 1
scalar RSUScenario.node[21].nic.mac1609_4 chPacketsSCH2 1
scalar RSUScenario.node[21].nic.mac1609_4 chPacketsSCH3 1
scalar RSUScenario.node[21].nic.mac1609_4 chPacketsSCH4 0
scalar RSUScenario.node[21].nic.mac1609_4 ReceivedUnicastPackets 0
scalar RSUScenario.node[21].nic.mac1609_4 ReceivedBroadcasts 28084
scalar RSUScenario.node[21].nic.mac1609_4 SentPackets 995
scalar RSUScenario.node[21].nic.mac1609_4 SentAcknowledgements 0
scalar RSUScenario.node[21].nic.mac1609_4 SNIRLostPackets 97
scalar RSUScenario.node[21].nic.mac1609_4 RXTXLostPackets 0
scalar RSUScenario.node[21].nic.mac1609_4 TotalLostPackets 97
scalar RSUScenario.node[21].nic.mac1609_4 DroppedPacketsInMac 0
scalar RSUScenario.node[21].nic.mac1609_4 TooLittleTime 0
scalar RSUScenario.node[21].nic.mac1609_4 TimesIntoBackoff 998
scalar RSUScenario.node[21].nic.mac1609_4 SlotsBackoff 1502
scalar RSUScenario.node[21].nic.mac1609_4 NumInternalContention 0
scalar RSUScenario.node[21].nic.mac1609_4 totalBusyTime 6.079340376309
scalar RSUScenario.node[21].nic.mac1609_4 throughputMetricMac:last 140.45526769236
attr source throughputSignalMac
attr title "throughputMetricMac, last"
scalar RSUScenario.node[21].nic.mac1609_4 throughputMetricMac:count 28084
attr source throughputSignalMac
attr title "throughputMetricMac, count"
scalar RSUScenario.node[21].nic.mac1609_4 throughputMetricMac:sum 2342135.6255663
attr source throughputSignalMac
attr title "throughputMetricMac, sum"
scalar RSUScenario.node[21].nic.mac1609_4 throughputMetricMac:mean 83.397508387917
attr source throughputSignalMac
attr title "throughputMetricMac, mean"
scalar RSUScenario.node[21].veinsmobility startTime 101000
scalar RSUScenario.node[21].veinsmobility totalTime 99000
scalar RSUScenario.node[21].veinsmobility stopTime 200000
scalar RSUScenario.node[21].veinsmobility minSpeed 0
scalar RSUScenario.node[21].veinsmobility maxSpeed 8.5447925259565
scalar RSUScenario.node[21].veinsmobility totalDistance 144.34916147203
scalar RSUScenario.node[21].veinsmobility totalCO2Emission 118.86766946719
scalar RSUScenario.node[22].appl generatedWSMs 1
scalar RSUScenario.node[22].appl receivedWSMs 36
scalar RSUScenario.node[22].appl generatedBSMs 969
scalar RSUScenario.node[22].appl receivedBSMs 27597
scalar RSUScenario.node[22].appl generatedWSAs 3
scalar RSUScenario.node[22].appl receivedWSAs 64
scalar RSUScenario.node[22].appl beaconInterval 0.1
scalar RSUScenario.node[22].nic.phy80211p busyTime 0.054942680412403
scalar RSUScenario.node[22].nic.phy80211p ncollisions 2
scalar RSUScenario.node[22].nic.mac1609_4 throughputMetricMac 138.51978168528
scalar RSUScenario.node[22].nic.mac1609_4 throughputMbps 0.12168167371315
scalar RSUScenario.node[22].nic.mac1609_4 throughputControlMbps 0
scalar RSUScenario.node[22].nic.mac1609_4 receivedFramesLowerMsg 27697
scalar RSUScenario.node[22].nic.mac1609_4 receivedBitsLowerPackets 0
scalar RSUScenario.node[22].nic.mac1609_4 receivedBitsLoserWsm 0
scalar RSUScenario.node[22].nic.mac1609_4 packetsNotForMe 0
scalar RSUScenario.node[22].nic.mac1609_4 receivedTotalBits 24330224
scalar RSUScenario.node[22].nic.mac1609_4 collisionsPktNonDecoded 0
scalar RSUScenario.node[22].nic.mac1609_4 chUtilizationCCH 0
scalar RSUScenario.node[22].nic.mac1609_4 chUtilizationSCH1 0
scalar RSUScenario.node[22].nic.mac1609_4 chUtilizationSCH2 0
scalar RSUScenario.node[22].nic.mac1609_4 chUtilizationSCH3 0
scalar RSUScenario.node[22].nic.mac1609_4 chUtilizationSCH4 0
scalar RSUScenario.node[22].nic.mac1609_4 chUtilizationHPPS 0
scalar RSUScenario.node[22].nic.mac1609_4 chUtilizationCRIT_SOL 0
scalar RSUScenario.node[22].nic.mac1609_4 previousSignalQualityCCH 0
scalar RSUScenario.node[22].nic.mac1609_4 previousSignalQualitySCH1 0
scalar RSUScenario.node[22].nic.mac1609_4 previousSignalQualitySCH2 0
scalar RSUScenario.node[22].nic.mac1609_4 previousSignalQualitySCH3 0
scalar RSUScenario.node[22].nic.mac1609_4 previousSignalQualitySCH4 0
scalar RSUScenario.node[22].nic.mac1609_4 chPacketsCCH 972
scalar RSUScenario.node[22].nic.mac1609_4 chPacketsSCH1 0
scalar RSUScenario.node[22].nic.mac1609_4 chPacketsSCH2 1
scalar RSUScenario.node[22].nic.mac1609_4 chPacketsSCH3 0
scalar RSUScenario.node[22].nic.mac1609_4 chPacketsSCH4 0
scalar RSUScenario.node[22].nic.mac1609_4 ReceivedUnicastPackets 0
scalar RSUScenario.node[22].nic.mac1609_4 ReceivedBroadcasts 27697
scalar RSUScenario.node[22].nic.mac1609_4 SentPackets 973
scalar RSUScenario.node[22].nic.mac1609_4 SentAcknowledgements 0
scalar RSUScenario.node[22].nic.mac1609_4 SNIRLostPackets 97
scalar RSUScenario.node[22].nic.mac1609_4 RXTXLostPackets 0
scalar RSUScenario.node[22].nic.mac1609_4 TotalLostPackets 97
scalar RSUScenario.node[22].nic.mac1609_4 DroppedPacketsInMac 0
scalar RSUScenario.node[22].nic.mac1609_4 TooLittleTime 0
scalar RSUScenario.node[22].nic.mac1609_4 TimesIntoBackoff 973
scalar RSUScenario.node[22].nic.mac1609_4 SlotsBackoff 1428
scalar RSUScenario.node[22].nic.mac1609_4 NumInternalContention 0
scalar RSUScenario.node[22].nic.mac1609_4 totalBusyTime 6.11511563454
scalar RSUScenario.node[22].nic.mac1609_4 throughputMetricMac:last 138.51978168528
attr source throughputSignalMac
attr title "throughputMetricMac, last"
scalar RSUScenario.node[22].nic.mac1609_4 throughputMetricMac:count 27697
attr source throughputSignalMac
attr title "throughputMetricMac, count"
scalar RSUScenario.node[22].nic.mac1609_4 throughputMetricMac:sum 2269953.6646386
attr source throughputSignalMac
attr title "throughputMetricMac, sum"
scalar RSUScenario.node[22].nic.mac1609_4 throughputMetricMac:mean 81.956661899793
attr source throughputSignalMac
attr title "throughputMetricMac, mean"
scalar RSUScenario.node[22].veinsmobility startTime 103000
scalar RSUScenario.node[22].veinsmobility totalTime 97000
scalar RSUScenario.node[22].veinsmobility stopTime 200000
scalar RSUScenario.node[22].veinsmobility minSpeed 0
scalar RSUScenario.node[22].veinsmobility maxSpeed 7.6265488707437
scalar RSUScenario.node[22].veinsmobility totalDistance 137.68261085865
scalar RSUScenario.node[22].veinsmobility totalCO2Emission 115.25284542644
scalar RSUScenario.node[23].appl generatedWSMs 1
scalar RSUScenario.node[23].appl receivedWSMs 36
scalar RSUScenario.node[23].appl generatedBSMs 939
scalar RSUScenario.node[23].appl receivedBSMs 26967
scalar RSUScenario.node[23].appl generatedWSAs 3
scalar RSUScenario.node[23].appl receivedWSAs 64
scalar RSUScenario.node[23].appl beaconInterval 0.1
scalar RSUScenario.node[23].nic.phy80211p busyTime 0.055431829787266
scalar RSUScenario.node[23].nic.phy80211p ncollisions 13
scalar RSUScenario.node[23].nic.mac1609_4 throughputMetricMac 135.36899051797
scalar RSUScenario.node[23].nic.mac1609_4 throughputMbps 0.11890897748595
scalar RSUScenario.node[23].nic.mac1609_4 throughputControlMbps 0
scalar RSUScenario.node[23].nic.mac1609_4 receivedFramesLowerMsg 27067
scalar RSUScenario.node[23].nic.mac1609_4 receivedBitsLowerPackets 0
scalar RSUScenario.node[23].nic.mac1609_4 receivedBitsLoserWsm 0
scalar RSUScenario.node[23].nic.mac1609_4 packetsNotForMe 0
scalar RSUScenario.node[23].nic.mac1609_4 receivedTotalBits 23775824
scalar RSUScenario.node[23].nic.mac1609_4 collisionsPktNonDecoded 0
scalar RSUScenario.node[23].nic.mac1609_4 chUtilizationCCH 0
scalar RSUScenario.node[23].nic.mac1609_4 chUtilizationSCH1 0
scalar RSUScenario.node[23].nic.mac1609_4 chUtilizationSCH2 0
scalar RSUScenario.node[23].nic.mac1609_4 chUtilizationSCH3 0
scalar RSUScenario.node[23].nic.mac1609_4 chUtilizationSCH4 0
scalar RSUScenario.node[23].nic.mac1609_4 chUtilizationHPPS 0
scalar RSUScenario.node[23].nic.mac1609_4 chUtilizationCRIT_SOL 0
scalar RSUScenario.node[23].nic.mac1609_4 previousSignalQualityCCH 0
scalar RSUScenario.node[23].nic.mac1609_4 previousSignalQualitySCH1 0
scalar RSUScenario.node[23].nic.mac1609_4 previousSignalQualitySCH2 0
scalar RSUScenario.node[23].nic.mac1609_4 previousSignalQualitySCH3 0
scalar RSUScenario.node[23].nic.mac1609_4 previousSignalQualitySCH4 0
scalar RSUScenario.node[23].nic.mac1609_4 chPacketsCCH 942
scalar RSUScenario.node[23].nic.mac1609_4 chPacketsSCH1 0
scalar RSUScenario.node[23].nic.mac1609_4 chPacketsSCH2 1
scalar RSUScenario.node[23].nic.mac1609_4 chPacketsSCH3 0
scalar RSUScenario.node[23].nic.mac1609_4 chPacketsSCH4 0
scalar RSUScenario.node[23].nic.mac1609_4 ReceivedUnicastPackets 0
scalar RSUScenario.node[23].nic.mac1609_4 ReceivedBroadcasts 27067
scalar RSUScenario.node[23].nic.mac1609_4 SentPackets 943
scalar RSUScenario.node[23].nic.mac1609_4 SentAcknowledgements 0
scalar RSUScenario.node[23].nic.mac1609_4 SNIRLostPackets 108
scalar RSUScenario.node[23].nic.mac1609_4 RXTXLostPackets 0
scalar RSUScenario.node[23].nic.mac1609_4 TotalLostPackets 108
scalar RSUScenario.node[23].nic.mac1609_4 DroppedPacketsInMac 0
scalar RSUScenario.node[23].nic.mac1609_4 TooLittleTime 0
scalar RSUScenario.node[23].nic.mac1609_4 TimesIntoBackoff 943
scalar RSUScenario.node[23].nic.mac1609_4 SlotsBackoff 1434
scalar RSUScenario.node[23].nic.mac1609_4 NumInternalContention 0
scalar RSUScenario.node[23].nic.mac1609_4 totalBusyTime 5.873379001935
scalar RSUScenario.node[23].nic.mac1609_4 throughputMetricMac:last 135.36899051797
attr source throughputSignalMac
attr title "throughputMetricMac, last"
scalar RSUScenario.node[23].nic.mac1609_4 throughputMetricMac:count 27067
attr source throughputSignalMac
attr title "throughputMetricMac, count"
scalar RSUScenario.node[23].nic.mac1609_4 throughputMetricMac:sum 2156304.1003048
attr source throughputSignalMac
attr title "throughputMetricMac, sum"
scalar RSUScenario.node[23].nic.mac1609_4 throughputMetricMac:mean 79.665426545419
attr source throughputSignalMac
attr title "throughputMetricMac, mean"
scalar RSUScenario.node[23].veinsmobility startTime 106000
scalar RSUScenario.node[23].veinsmobility totalTime 94000
scalar RSUScenario.node[23].veinsmobility stopTime 200000
scalar RSUScenario.node[23].veinsmobility minSpeed 0
scalar RSUScenario.node[23].veinsmobility maxSpeed 6.7403223326175
scalar RSUScenario.node[23].veinsmobility totalDistance 129.28623039961
scalar RSUScenario.node[23].veinsmobility totalCO2Emission 109.57458477886
scalar RSUScenario.node[6].appl generatedWSMs 1
scalar RSUScenario.node[6].appl receivedWSMs 57
scalar RSUScenario.node[6].appl generatedBSMs 1779
scalar RSUScenario.node[6].appl receivedBSMs 37130
scalar RSUScenario.node[6].appl generatedWSAs 3
scalar RSUScenario.node[6].appl receivedWSAs 103
scalar RSUScenario.node[6].appl beaconInterval 0.1
scalar RSUScenario.node[6].nic.phy80211p busyTime 0.040363011235983
scalar RSUScenario.node[6].nic.phy80211p ncollisions 93
scalar RSUScenario.node[6].nic.mac1609_4 throughputMetricMac 186.49682843324
scalar RSUScenario.node[6].nic.mac1609_4 throughputMbps 0.16376896157796
scalar RSUScenario.node[6].nic.mac1609_4 throughputControlMbps 0
scalar RSUScenario.node[6].nic.mac1609_4 receivedFramesLowerMsg 37290
scalar RSUScenario.node[6].nic.mac1609_4 receivedBitsLowerPackets 0
scalar RSUScenario.node[6].nic.mac1609_4 receivedBitsLoserWsm 0
scalar RSUScenario.node[6].nic.mac1609_4 packetsNotForMe 0
scalar RSUScenario.node[6].nic.mac1609_4 receivedTotalBits 32745568
scalar RSUScenario.node[6].nic.mac1609_4 collisionsPktNonDecoded 0
scalar RSUScenario.node[6].nic.mac1609_4 chUtilizationCCH 0
scalar RSUScenario.node[6].nic.mac1609_4 chUtilizationSCH1 0
scalar RSUScenario.node[6].nic.mac1609_4 chUtilizationSCH2 0
scalar RSUScenario.node[6].nic.mac1609_4 chUtilizationSCH3 0
scalar RSUScenario.node[6].nic.mac1609_4 chUtilizationSCH4 0
scalar RSUScenario.node[6].nic.mac1609_4 chUtilizationHPPS 0
scalar RSUScenario.node[6].nic.mac1609_4 chUtilizationCRIT_SOL 0
scalar RSUScenario.node[6].nic.mac1609_4 previousSignalQualityCCH 0
scalar RSUScenario.node[6].nic.mac1609_4 previousSignalQualitySCH1 0
scalar RSUScenario.node[6].nic.mac1609_4 previousSignalQualitySCH2 0
scalar RSUScenario.node[6].nic.mac1609_4 previousSignalQualitySCH3 0
scalar RSUScenario.node[6].nic.mac1609_4 previousSignalQualitySCH4 0
scalar RSUScenario.node[6].nic.mac1609_4 chPacketsCCH 1782
scalar RSUScenario.node[6].nic.mac1609_4 chPacketsSCH1 0
scalar RSUScenario.node[6].nic.mac1609_4 chPacketsSCH2 0
scalar RSUScenario.node[6].nic.mac1609_4 chPacketsSCH3 0
scalar RSUScenario.node[6].nic.mac1609_4 chPacketsSCH4 0
scalar RSUScenario.node[6].nic.mac1609_4 ReceivedUnicastPackets 0
scalar RSUScenario.node[6].nic.mac1609_4 ReceivedBroadcasts 37290
scalar RSUScenario.node[6].nic.mac1609_4 SentPackets 1783
scalar RSUScenario.node[6].nic.mac1609_4 SentAcknowledgements 0
scalar RSUScenario.node[6].nic.mac1609_4 SNIRLostPackets 188
scalar RSUScenario.node[6].nic.mac1609_4 RXTXLostPackets 0
scalar RSUScenario.node[6].nic.mac1609_4 TotalLostPackets 188
scalar RSUScenario.node[6].nic.mac1609_4 DroppedPacketsInMac 0
scalar RSUScenario.node[6].nic.mac1609_4 TooLittleTime 0
scalar RSUScenario.node[6].nic.mac1609_4 TimesIntoBackoff 1784
scalar RSUScenario.node[6].nic.mac1609_4 SlotsBackoff 2590
scalar RSUScenario.node[6].nic.mac1609_4 NumInternalContention 0
scalar RSUScenario.node[6].nic.mac1609_4 totalBusyTime 10.206982754613
scalar RSUScenario.node[6].nic.mac1609_4 throughputMetricMac:last 186.49682843324
attr source throughputSignalMac
attr title "throughputMetricMac, last"
scalar RSUScenario.node[6].nic.mac1609_4 throughputMetricMac:count 37290
attr source throughputSignalMac
attr title "throughputMetricMac, count"
scalar RSUScenario.node[6].nic.mac1609_4 throughputMetricMac:sum 4619429.3546479
attr source throughputSignalMac
attr title "throughputMetricMac, sum"
scalar RSUScenario.node[6].nic.mac1609_4 throughputMetricMac:mean 123.87850240407
attr source throughputSignalMac
attr title "throughputMetricMac, mean"
scalar RSUScenario.node[6].veinsmobility startTime 22000
scalar RSUScenario.node[6].veinsmobility totalTime 178000
scalar RSUScenario.node[6].veinsmobility stopTime 200000
scalar RSUScenario.node[6].veinsmobility minSpeed 0.98094131815177
scalar RSUScenario.node[6].veinsmobility maxSpeed 13.793682518269
scalar RSUScenario.node[6].veinsmobility totalDistance 337.56467839437
scalar RSUScenario.node[6].veinsmobility totalCO2Emission 239.94738452086
scalar RSUScenario.node[24].appl generatedWSMs 1
scalar RSUScenario.node[24].appl receivedWSMs 36
scalar RSUScenario.node[24].appl generatedBSMs 909
scalar RSUScenario.node[24].appl receivedBSMs 26309
scalar RSUScenario.node[24].appl generatedWSAs 3
scalar RSUScenario.node[24].appl receivedWSAs 64
scalar RSUScenario.node[24].appl beaconInterval 0.1
scalar RSUScenario.node[24].nic.phy80211p busyTime 0.055889934065966
scalar RSUScenario.node[24].nic.phy80211p ncollisions 22
scalar RSUScenario.node[24].nic.mac1609_4 throughputMetricMac 132.07816419923
scalar RSUScenario.node[24].nic.mac1609_4 throughputMbps 0.11601305032547
scalar RSUScenario.node[24].nic.mac1609_4 throughputControlMbps 0
scalar RSUScenario.node[24].nic.mac1609_4 receivedFramesLowerMsg 26409
scalar RSUScenario.node[24].nic.mac1609_4 receivedBitsLowerPackets 0
scalar RSUScenario.node[24].nic.mac1609_4 receivedBitsLoserWsm 0
scalar RSUScenario.node[24].nic.mac1609_4 packetsNotForMe 0
scalar RSUScenario.node[24].nic.mac1609_4 receivedTotalBits 23196784
scalar RSUScenario.node[24].nic.mac1609_4 collisionsPktNonDecoded 0
scalar RSUScenario.node[24].nic.mac1609_4 chUtilizationCCH 0
scalar RSUScenario.node[24].nic.mac1609_4 chUtilizationSCH1 0
scalar RSUScenario.node[24].nic.mac1609_4 chUtilizationSCH2 0
scalar RSUScenario.node[24].nic.mac1609_4 chUtilizationSCH3 0
scalar RSUScenario.node[24].nic.mac1609_4 chUtilizationSCH4 0
scalar RSUScenario.node[24].nic.mac1609_4 chUtilizationHPPS 0
scalar RSUScenario.node[24].nic.mac1609_4 chUtilizationCRIT_SOL 0
scalar RSUScenario.node[24].nic.mac1609_4 previousSignalQualityCCH 0
scalar RSUScenario.node[24].nic.mac1609_4 previousSignalQualitySCH1 0
scalar RSUScenario.node[24].nic.mac1609_4 previousSignalQualitySCH2 0
scalar RSUScenario.node[24].nic.mac1609_4 previousSignalQualitySCH3 0
scalar RSUScenario.node[24].nic.mac1609_4 previousSignalQualitySCH4 0
scalar RSUScenario.node[24].nic.mac1609_4 chPacketsCCH 912
scalar RSUScenario.node[24].nic.mac1609_4 chPacketsSCH1 0
scalar RSUScenario.node[24].nic.mac1609_4 chPacketsSCH2 1
scalar RSUScenario.node[24].nic.mac1609_4 chPacketsSCH3 0
scalar RSUScenario.node[24].nic.mac1609_4 chPacketsSCH4 0
scalar RSUScenario.node[24].nic.mac1609_4 ReceivedUnicastPackets 0
scalar RSUScenario.node[24].nic.mac1609_4 ReceivedBroadcasts 26409
scalar RSUScenario.node[24].nic.mac1609_4 SentPackets 913
scalar RSUScenario.node[24].nic.mac1609_4 SentAcknowledgements 0
scalar RSUScenario.node[24].nic.mac1609_4 SNIRLostPackets 117
scalar RSUScenario.node[24].nic.mac1609_4 RXTXLostPackets 0
scalar RSUScenario.node[24].nic.mac1609_4 TotalLostPackets 117
scalar RSUScenario.node[24].nic.mac1609_4 DroppedPacketsInMac 0
scalar RSUScenario.node[24].nic.mac1609_4 TooLittleTime 0
scalar RSUScenario.node[24].nic.mac1609_4 TimesIntoBackoff 1822
scalar RSUScenario.node[24].nic.mac1609_4 SlotsBackoff 1355
scalar RSUScenario.node[24].nic.mac1609_4 NumInternalContention 0
scalar RSUScenario.node[24].nic.mac1609_4 totalBusyTime 5.613981223338
scalar RSUScenario.node[24].nic.mac1609_4 throughputMetricMac:last 132.07816419923
attr source throughputSignalMac
attr title "throughputMetricMac, last"
scalar RSUScenario.node[24].nic.mac1609_4 throughputMetricMac:count 26409
attr source throughputSignalMac
attr title "throughputMetricMac, count"
scalar RSUScenario.node[24].nic.mac1609_4 throughputMetricMac:sum 2041478.1427817
attr source throughputSignalMac
attr title "throughputMetricMac, sum"
scalar RSUScenario.node[24].nic.mac1609_4 throughputMetricMac:mean 77.30236445082
attr source throughputSignalMac
attr title "throughputMetricMac, mean"
scalar RSUScenario.node[24].veinsmobility startTime 109000
scalar RSUScenario.node[24].veinsmobility totalTime 91000
scalar RSUScenario.node[24].veinsmobility stopTime 200000
scalar RSUScenario.node[24].veinsmobility minSpeed 0
scalar RSUScenario.node[24].veinsmobility maxSpeed 5.9430106001603
scalar RSUScenario.node[24].veinsmobility totalDistance 121.39510846041
scalar RSUScenario.node[24].veinsmobility totalCO2Emission 104.83172222377
scalar RSUScenario.node[25].appl generatedWSMs 1
scalar RSUScenario.node[25].appl receivedWSMs 13
scalar RSUScenario.node[25].appl generatedBSMs 599
scalar RSUScenario.node[25].appl receivedBSMs 19133
scalar RSUScenario.node[25].appl generatedWSAs 3
scalar RSUScenario.node[25].appl receivedWSAs 28
scalar RSUScenario.node[25].appl beaconInterval 0.1
scalar RSUScenario.node[25].nic.phy80211p busyTime 0.061675866666692
scalar RSUScenario.node[25].nic.phy80211p ncollisions 22
scalar RSUScenario.node[25].nic.mac1609_4 throughputMetricMac 95.894078544623
scalar RSUScenario.node[25].nic.mac1609_4 throughputMbps 0.084289324646428
scalar RSUScenario.node[25].nic.mac1609_4 throughputControlMbps 0
scalar RSUScenario.node[25].nic.mac1609_4 receivedFramesLowerMsg 19174
scalar RSUScenario.node[25].nic.mac1609_4 receivedBitsLowerPackets 0
scalar RSUScenario.node[25].nic.mac1609_4 receivedBitsLoserWsm 0
scalar RSUScenario.node[25].nic.mac1609_4 packetsNotForMe 0
scalar RSUScenario.node[25].nic.mac1609_4 receivedTotalBits 16853632
scalar RSUScenario.node[25].nic.mac1609_4 collisionsPktNonDecoded 0
scalar RSUScenario.node[25].nic.mac1609_4 chUtilizationCCH 0
scalar RSUScenario.node[25].nic.mac1609_4 chUtilizationSCH1 0
scalar RSUScenario.node[25].nic.mac1609_4 chUtilizationSCH2 0
scalar RSUScenario.node[25].nic.mac1609_4 chUtilizationSCH3 0
scalar RSUScenario.node[25].nic.mac1609_4 chUtilizationSCH4 0
scalar RSUScenario.node[25].nic.mac1609_4 chUtilizationHPPS 0
scalar RSUScenario.node[25].nic.mac1609_4 chUtilizationCRIT_SOL 0
scalar RSUScenario.node[25].nic.mac1609_4 previousSignalQualityCCH 0
scalar RSUScenario.node[25].nic.mac1609_4 previousSignalQualitySCH1 0
scalar RSUScenario.node[25].nic.mac1609_4 previousSignalQualitySCH2 0
scalar RSUScenario.node[25].nic.mac1609_4 previousSignalQualitySCH3 0
scalar RSUScenario.node[25].nic.mac1609_4 previousSignalQualitySCH4 0
scalar RSUScenario.node[25].nic.mac1609_4 chPacketsCCH 599
scalar RSUScenario.node[25].nic.mac1609_4 chPacketsSCH1 0
scalar RSUScenario.node[25].nic.mac1609_4 chPacketsSCH2 0
scalar RSUScenario.node[25].nic.mac1609_4 chPacketsSCH3 0
scalar RSUScenario.node[25].nic.mac1609_4 chPacketsSCH4 0
scalar RSUScenario.node[25].nic.mac1609_4 ReceivedUnicastPackets 0
scalar RSUScenario.node[25].nic.mac1609_4 ReceivedBroadcasts 19174
scalar RSUScenario.node[25].nic.mac1609_4 SentPackets 600
scalar RSUScenario.node[25].nic.mac1609_4 SentAcknowledgements 0
scalar RSUScenario.node[25].nic.mac1609_4 SNIRLostPackets 117
scalar RSUScenario.node[25].nic.mac1609_4 RXTXLostPackets 0
scalar RSUScenario.node[25].nic.mac1609_4 TotalLostPackets 117
scalar RSUScenario.node[25].nic.mac1609_4 DroppedPacketsInMac 3
scalar RSUScenario.node[25].nic.mac1609_4 TooLittleTime 0
scalar RSUScenario.node[25].nic.mac1609_4 TimesIntoBackoff 604
scalar RSUScenario.node[25].nic.mac1609_4 SlotsBackoff 868
scalar RSUScenario.node[25].nic.mac1609_4 NumInternalContention 0
scalar RSUScenario.node[25].nic.mac1609_4 totalBusyTime 4.101209331464
scalar RSUScenario.node[25].nic.mac1609_4 throughputMetricMac:last 95.894078544623
attr source throughputSignalMac
attr title "throughputMetricMac, last"
scalar RSUScenario.node[25].nic.mac1609_4 throughputMetricMac:count 19174
attr source throughputSignalMac
attr title "throughputMetricMac, count"
scalar RSUScenario.node[25].nic.mac1609_4 throughputMetricMac:sum 1021206.7575717
attr source throughputSignalMac
attr title "throughputMetricMac, sum"
scalar RSUScenario.node[25].nic.mac1609_4 throughputMetricMac:mean 53.259974839452
attr source throughputSignalMac
attr title "throughputMetricMac, mean"
scalar RSUScenario.node[25].veinsmobility startTime 140000
scalar RSUScenario.node[25].veinsmobility totalTime 60000
scalar RSUScenario.node[25].veinsmobility stopTime 200000
scalar RSUScenario.node[25].veinsmobility minSpeed 0.68042719191989
scalar RSUScenario.node[25].veinsmobility maxSpeed 5.4218828293063
scalar RSUScenario.node[25].veinsmobility totalDistance 114.01584884393
scalar RSUScenario.node[25].veinsmobility totalCO2Emission 72.107433417441
scalar RSUScenario.node[26].appl generatedWSMs 1
scalar RSUScenario.node[26].appl receivedWSMs 13
scalar RSUScenario.node[26].appl generatedBSMs 569
scalar RSUScenario.node[26].appl receivedBSMs 18431
scalar RSUScenario.node[26].appl generatedWSAs 2
scalar RSUScenario.node[26].appl receivedWSAs 29
scalar RSUScenario.node[26].appl beaconInterval 0.1
scalar RSUScenario.node[26].nic.phy80211p busyTime 0.062312561403532
scalar RSUScenario.node[26].nic.phy80211p ncollisions 22
scalar RSUScenario.node[26].nic.mac1609_4 throughputMetricMac 92.388198235871
scalar RSUScenario.node[26].nic.mac1609_4 throughputMbps 0.081200148970096
scalar RSUScenario.node[26].nic.mac1609_4 throughputControlMbps 0
scalar RSUScenario.node[26].nic.mac1609_4 receivedFramesLowerMsg 18473
scalar RSUScenario.node[26].nic.mac1609_4 receivedBitsLowerPackets 0
scalar RSUScenario.node[26].nic.mac1609_4 receivedBitsLoserWsm 0
scalar RSUScenario.node[26].nic.mac1609_4 packetsNotForMe 0
scalar RSUScenario.node[26].nic.mac1609_4 receivedTotalBits 16235952
scalar RSUScenario.node[26].nic.mac1609_4 collisionsPktNonDecoded 0
scalar RSUScenario.node[26].nic.mac1609_4 chUtilizationCCH 0
scalar RSUScenario.node[26].nic.mac1609_4 chUtilizationSCH1 0
scalar RSUScenario.node[26].nic.mac1609_4 chUtilizationSCH2 0
scalar RSUScenario.node[26].nic.mac1609_4 chUtilizationSCH3 0
scalar RSUScenario.node[26].nic.mac1609_4 chUtilizationSCH4 0
scalar RSUScenario.node[26].nic.mac1609_4 chUtilizationHPPS 0
scalar RSUScenario.node[26].nic.mac1609_4 chUtilizationCRIT_SOL 0
scalar RSUScenario.node[26].nic.mac1609_4 previousSignalQualityCCH 0
scalar RSUScenario.node[26].nic.mac1609_4 previousSignalQualitySCH1 0
scalar RSUScenario.node[26].nic.mac1609_4 previousSignalQualitySCH2 0
scalar RSUScenario.node[26].nic.mac1609_4 previousSignalQualitySCH3 0
scalar RSUScenario.node[26].nic.mac1609_4 previousSignalQualitySCH4 0
scalar RSUScenario.node[26].nic.mac1609_4 chPacketsCCH 571
scalar RSUScenario.node[26].nic.mac1609_4 chPacketsSCH1 0
scalar RSUScenario.node[26].nic.mac1609_4 chPacketsSCH2 0
scalar RSUScenario.node[26].nic.mac1609_4 chPacketsSCH3 1
scalar RSUScenario.node[26].nic.mac1609_4 chPacketsSCH4 0
scalar RSUScenario.node[26].nic.mac1609_4 ReceivedUnicastPackets 0
scalar RSUScenario.node[26].nic.mac1609_4 ReceivedBroadcasts 18473
scalar RSUScenario.node[26].nic.mac1609_4 SentPackets 572
scalar RSUScenario.node[26].nic.mac1609_4 SentAcknowledgements 0
scalar RSUScenario.node[26].nic.mac1609_4 SNIRLostPackets 44
scalar RSUScenario.node[26].nic.mac1609_4 RXTXLostPackets 73
scalar RSUScenario.node[26].nic.mac1609_4 TotalLostPackets 117
scalar RSUScenario.node[26].nic.mac1609_4 DroppedPacketsInMac 0
scalar RSUScenario.node[26].nic.mac1609_4 TooLittleTime 0
scalar RSUScenario.node[26].nic.mac1609_4 TimesIntoBackoff 1143
scalar RSUScenario.node[26].nic.mac1609_4 SlotsBackoff 866
scalar RSUScenario.node[26].nic.mac1609_4 NumInternalContention 0
scalar RSUScenario.node[26].nic.mac1609_4 totalBusyTime 3.960020317794
scalar RSUScenario.node[26].nic.mac1609_4 throughputMetricMac:last 92.388198235871
attr source throughputSignalMac
attr title "throughputMetricMac, last"
scalar RSUScenario.node[26].nic.mac1609_4 throughputMetricMac:count 18473
attr source throughputSignalMac
attr title "throughputMetricMac, count"
scalar RSUScenario.node[26].nic.mac1609_4 throughputMetricMac:sum 943526.33458
attr source throughputSignalMac
attr title "throughputMetricMac, sum"
scalar RSUScenario.node[26].nic.mac1609_4 throughputMetricMac:mean 51.075966793699
attr source throughputSignalMac
attr title "throughputMetricMac, mean"
scalar RSUScenario.node[26].veinsmobility startTime 143000
scalar RSUScenario.node[26].veinsmobility totalTime 57000
scalar RSUScenario.node[26].veinsmobility stopTime 200000
scalar RSUScenario.node[26].veinsmobility minSpeed 0.81150968343936
scalar RSUScenario.node[26].veinsmobility maxSpeed 5.3908081853904
scalar RSUScenario.node[26].veinsmobility totalDistance 106.65007352073
scalar RSUScenario.node[26].veinsmobility totalCO2Emission 66.485420994761
scalar RSUScenario.node[27].appl generatedWSMs 1
scalar RSUScenario.node[27].appl receivedWSMs 13
scalar RSUScenario.node[27].appl generatedBSMs 549
scalar RSUScenario.node[27].appl receivedBSMs 17942
scalar RSUScenario.node[27].appl generatedWSAs 3
scalar RSUScenario.node[27].appl receivedWSAs 28
scalar RSUScenario.node[27].appl beaconInterval 0.1
scalar RSUScenario.node[27].nic.phy80211p busyTime 0.063125090909114
scalar RSUScenario.node[27].nic.phy80211p ncollisions 22
scalar RSUScenario.node[27].nic.mac1609_4 throughputMetricMac 89.937582898666
scalar RSUScenario.node[27].nic.mac1609_4 throughputMbps 0.07904760847799
scalar RSUScenario.node[27].nic.mac1609_4 throughputControlMbps 0
scalar RSUScenario.node[27].nic.mac1609_4 receivedFramesLowerMsg 17983
scalar RSUScenario.node[27].nic.mac1609_4 receivedBitsLowerPackets 0
scalar RSUScenario.node[27].nic.mac1609_4 receivedBitsLoserWsm 0
scalar RSUScenario.node[27].nic.mac1609_4 packetsNotForMe 0
scalar RSUScenario.node[27].nic.mac1609_4 receivedTotalBits 15805552
scalar RSUScenario.node[27].nic.mac1609_4 collisionsPktNonDecoded 0
scalar RSUScenario.node[27].nic.mac1609_4 chUtilizationCCH 0
scalar RSUScenario.node[27].nic.mac1609_4 chUtilizationSCH1 0
scalar RSUScenario.node[27].nic.mac1609_4 chUtilizationSCH2 0
scalar RSUScenario.node[27].nic.mac1609_4 chUtilizationSCH3 0
scalar RSUScenario.node[27].nic.mac1609_4 chUtilizationSCH4 0
scalar RSUScenario.node[27].nic.mac1609_4 chUtilizationHPPS 0
scalar RSUScenario.node[27].nic.mac1609_4 chUtilizationCRIT_SOL 0
scalar RSUScenario.node[27].nic.mac1609_4 previousSignalQualityCCH 0
scalar RSUScenario.node[27].nic.mac1609_4 previousSignalQualitySCH1 0
scalar RSUScenario.node[27].nic.mac1609_4 previousSignalQualitySCH2 0
scalar RSUScenario.node[27].nic.mac1609_4 previousSignalQualitySCH3 0
scalar RSUScenario.node[27].nic.mac1609_4 previousSignalQualitySCH4 0
scalar RSUScenario.node[27].nic.mac1609_4 chPacketsCCH 552
scalar RSUScenario.node[27].nic.mac1609_4 chPacketsSCH1 0
scalar RSUScenario.node[27].nic.mac1609_4 chPacketsSCH2 0
scalar RSUScenario.node[27].nic.mac1609_4 chPacketsSCH3 1
scalar RSUScenario.node[27].nic.mac1609_4 chPacketsSCH4 0
scalar RSUScenario.node[27].nic.mac1609_4 ReceivedUnicastPackets 0
scalar RSUScenario.node[27].nic.mac1609_4 ReceivedBroadcasts 17983
scalar RSUScenario.node[27].nic.mac1609_4 SentPackets 553
scalar RSUScenario.node[27].nic.mac1609_4 SentAcknowledgements 0
scalar RSUScenario.node[27].nic.mac1609_4 SNIRLostPackets 117
scalar RSUScenario.node[27].nic.mac1609_4 RXTXLostPackets 0
scalar RSUScenario.node[27].nic.mac1609_4 TotalLostPackets 117
scalar RSUScenario.node[27].nic.mac1609_4 DroppedPacketsInMac 0
scalar RSUScenario.node[27].nic.mac1609_4 TooLittleTime 0
scalar RSUScenario.node[27].nic.mac1609_4 TimesIntoBackoff 553
[...]
scalar RSUScenario.node[12].nic.mac1609_4 ReceivedUnicastPackets 0
scalar RSUScenario.node[12].nic.mac1609_4 ReceivedBroadcasts 35071
scalar RSUScenario.node[12].nic.mac1609_4 SentPackets 1505
scalar RSUScenario.node[12].nic.mac1609_4 SentAcknowledgements 0
scalar RSUScenario.node[12].nic.mac1609_4 SNIRLostPackets 151
scalar RSUScenario.node[12].nic.mac1609_4 RXTXLostPackets 0
scalar RSUScenario.node[12].nic.mac1609_4 TotalLostPackets 151
scalar RSUScenario.node[12].nic.mac1609_4 DroppedPacketsInMac 0
scalar RSUScenario.node[12].nic.mac1609_4 TooLittleTime 0
scalar RSUScenario.node[12].nic.mac1609_4 TimesIntoBackoff 1505
scalar RSUScenario.node[12].nic.mac1609_4 SlotsBackoff 2134
scalar RSUScenario.node[12].nic.mac1609_4 NumInternalContention 0
scalar RSUScenario.node[12].nic.mac1609_4 totalBusyTime 7.983254336253
scalar RSUScenario.node[12].nic.mac1609_4 throughputMetricMac:last 175.40196505035
attr source throughputSignalMac
attr title "throughputMetricMac, last"
scalar RSUScenario.node[12].nic.mac1609_4 throughputMetricMac:count 35071
attr source throughputSignalMac
attr title "throughputMetricMac, count"
scalar RSUScenario.node[12].nic.mac1609_4 throughputMetricMac:sum 3926576.3010381
attr source throughputSignalMac
attr title "throughputMetricMac, sum"
scalar RSUScenario.node[12].nic.mac1609_4 throughputMetricMac:mean 111.96077388834
attr source throughputSignalMac
attr title "throughputMetricMac, mean"
scalar RSUScenario.node[12].veinsmobility startTime 50000
scalar RSUScenario.node[12].veinsmobility totalTime 150000
scalar RSUScenario.node[12].veinsmobility stopTime 200000
scalar RSUScenario.node[12].veinsmobility minSpeed 0
scalar RSUScenario.node[12].veinsmobility maxSpeed 7.4105448994872
scalar RSUScenario.node[12].veinsmobility totalDistance 218.62111679437
scalar RSUScenario.node[12].veinsmobility totalCO2Emission 179.95103440512
scalar RSUScenario.node[13].appl generatedWSMs 1
scalar RSUScenario.node[13].appl receivedWSMs 36
scalar RSUScenario.node[13].appl generatedBSMs 1169
scalar RSUScenario.node[13].appl receivedBSMs 31013
scalar RSUScenario.node[13].appl generatedWSAs 3
scalar RSUScenario.node[13].appl receivedWSAs 64
scalar RSUScenario.node[13].appl beaconInterval 0.1
scalar RSUScenario.node[13].nic.phy80211p busyTime 0.051197538461571
scalar RSUScenario.node[13].nic.phy80211p ncollisions 27
scalar RSUScenario.node[13].nic.mac1609_4 throughputMetricMac 155.60407164447
scalar RSUScenario.node[13].nic.mac1609_4 throughputMbps 0.13671584887697
scalar RSUScenario.node[13].nic.mac1609_4 throughputControlMbps 0
scalar RSUScenario.node[13].nic.mac1609_4 receivedFramesLowerMsg 31113
scalar RSUScenario.node[13].nic.mac1609_4 receivedBitsLowerPackets 0
scalar RSUScenario.node[13].nic.mac1609_4 receivedBitsLoserWsm 0
scalar RSUScenario.node[13].nic.mac1609_4 packetsNotForMe 0
scalar RSUScenario.node[13].nic.mac1609_4 receivedTotalBits 27336304
scalar RSUScenario.node[13].nic.mac1609_4 collisionsPktNonDecoded 0
scalar RSUScenario.node[13].nic.mac1609_4 chUtilizationCCH 0
scalar RSUScenario.node[13].nic.mac1609_4 chUtilizationSCH1 0
scalar RSUScenario.node[13].nic.mac1609_4 chUtilizationSCH2 0
scalar RSUScenario.node[13].nic.mac1609_4 chUtilizationSCH3 0
scalar RSUScenario.node[13].nic.mac1609_4 chUtilizationSCH4 0
scalar RSUScenario.node[13].nic.mac1609_4 chUtilizationHPPS 0
scalar RSUScenario.node[13].nic.mac1609_4 chUtilizationCRIT_SOL 0
scalar RSUScenario.node[13].nic.mac1609_4 previousSignalQualityCCH 0
scalar RSUScenario.node[13].nic.mac1609_4 previousSignalQualitySCH1 0
scalar RSUScenario.node[13].nic.mac1609_4 previousSignalQualitySCH2 0
scalar RSUScenario.node[13].nic.mac1609_4 previousSignalQualitySCH3 0
scalar RSUScenario.node[13].nic.mac1609_4 previousSignalQualitySCH4 0
scalar RSUScenario.node[13].nic.mac1609_4 chPacketsCCH 1172
scalar RSUScenario.node[13].nic.mac1609_4 chPacketsSCH1 0
scalar RSUScenario.node[13].nic.mac1609_4 chPacketsSCH2 0
scalar RSUScenario.node[13].nic.mac1609_4 chPacketsSCH3 0
scalar RSUScenario.node[13].nic.mac1609_4 chPacketsSCH4 0
scalar RSUScenario.node[13].nic.mac1609_4 ReceivedUnicastPackets 0
scalar RSUScenario.node[13].nic.mac1609_4 ReceivedBroadcasts 31113
scalar RSUScenario.node[13].nic.mac1609_4 SentPackets 1173
scalar RSUScenario.node[13].nic.mac1609_4 SentAcknowledgements 0
scalar RSUScenario.node[13].nic.mac1609_4 SNIRLostPackets 122
scalar RSUScenario.node[13].nic.mac1609_4 RXTXLostPackets 0
scalar RSUScenario.node[13].nic.mac1609_4 TotalLostPackets 122
scalar RSUScenario.node[13].nic.mac1609_4 DroppedPacketsInMac 0
scalar RSUScenario.node[13].nic.mac1609_4 TooLittleTime 0
scalar RSUScenario.node[13].nic.mac1609_4 TimesIntoBackoff 1174
scalar RSUScenario.node[13].nic.mac1609_4 SlotsBackoff 1840
scalar RSUScenario.node[13].nic.mac1609_4 NumInternalContention 0
scalar RSUScenario.node[13].nic.mac1609_4 totalBusyTime 6.747984796299
scalar RSUScenario.node[13].nic.mac1609_4 throughputMetricMac:last 155.60407164447
attr source throughputSignalMac
attr title "throughputMetricMac, last"
scalar RSUScenario.node[13].nic.mac1609_4 throughputMetricMac:count 31113
attr source throughputSignalMac
attr title "throughputMetricMac, count"
scalar RSUScenario.node[13].nic.mac1609_4 throughputMetricMac:sum 2946655.7769685
attr source throughputSignalMac
attr title "throughputMetricMac, sum"
scalar RSUScenario.node[13].nic.mac1609_4 throughputMetricMac:mean 94.708185548438
attr source throughputSignalMac
attr title "throughputMetricMac, mean"
scalar RSUScenario.node[13].veinsmobility startTime 83000
scalar RSUScenario.node[13].veinsmobility totalTime 117000
scalar RSUScenario.node[13].veinsmobility stopTime 200000
scalar RSUScenario.node[13].veinsmobility minSpeed 0.00096499577547671
scalar RSUScenario.node[13].veinsmobility maxSpeed 7.1800269404833
scalar RSUScenario.node[13].veinsmobility totalDistance 209.47179765824
scalar RSUScenario.node[13].veinsmobility totalCO2Emission 144.68911034915
scalar RSUScenario.node[2].appl generatedWSMs 1
scalar RSUScenario.node[2].appl receivedWSMs 57
scalar RSUScenario.node[2].appl generatedBSMs 1939
scalar RSUScenario.node[2].appl receivedBSMs 36294
scalar RSUScenario.node[2].appl generatedWSAs 3
scalar RSUScenario.node[2].appl receivedWSAs 103
scalar RSUScenario.node[2].appl beaconInterval 0.1
scalar RSUScenario.node[2].nic.phy80211p busyTime 0.036119628866004
scalar RSUScenario.node[2].nic.phy80211p ncollisions 49
scalar RSUScenario.node[2].nic.mac1609_4 throughputMetricMac 182.31577806739
scalar RSUScenario.node[2].nic.mac1609_4 throughputMbps 0.160089637257
scalar RSUScenario.node[2].nic.mac1609_4 throughputControlMbps 0
scalar RSUScenario.node[2].nic.mac1609_4 receivedFramesLowerMsg 36454
scalar RSUScenario.node[2].nic.mac1609_4 receivedBitsLowerPackets 0
scalar RSUScenario.node[2].nic.mac1609_4 receivedBitsLoserWsm 0
scalar RSUScenario.node[2].nic.mac1609_4 packetsNotForMe 0
scalar RSUScenario.node[2].nic.mac1609_4 receivedTotalBits 32009888
scalar RSUScenario.node[2].nic.mac1609_4 collisionsPktNonDecoded 0
scalar RSUScenario.node[2].nic.mac1609_4 chUtilizationCCH 0
scalar RSUScenario.node[2].nic.mac1609_4 chUtilizationSCH1 0
scalar RSUScenario.node[2].nic.mac1609_4 chUtilizationSCH2 0
scalar RSUScenario.node[2].nic.mac1609_4 chUtilizationSCH3 0
scalar RSUScenario.node[2].nic.mac1609_4 chUtilizationSCH4 0
scalar RSUScenario.node[2].nic.mac1609_4 chUtilizationHPPS 0
scalar RSUScenario.node[2].nic.mac1609_4 chUtilizationCRIT_SOL 0
scalar RSUScenario.node[2].nic.mac1609_4 previousSignalQualityCCH 0
scalar RSUScenario.node[2].nic.mac1609_4 previousSignalQualitySCH1 0
scalar RSUScenario.node[2].nic.mac1609_4 previousSignalQualitySCH2 0
scalar RSUScenario.node[2].nic.mac1609_4 previousSignalQualitySCH3 0
scalar RSUScenario.node[2].nic.mac1609_4 previousSignalQualitySCH4 0
scalar RSUScenario.node[2].nic.mac1609_4 chPacketsCCH 1942
scalar RSUScenario.node[2].nic.mac1609_4 chPacketsSCH1 0
scalar RSUScenario.node[2].nic.mac1609_4 chPacketsSCH2 0
scalar RSUScenario.node[2].nic.mac1609_4 chPacketsSCH3 0
scalar RSUScenario.node[2].nic.mac1609_4 chPacketsSCH4 0
scalar RSUScenario.node[2].nic.mac1609_4 ReceivedUnicastPackets 0
scalar RSUScenario.node[2].nic.mac1609_4 ReceivedBroadcasts 36454
scalar RSUScenario.node[2].nic.mac1609_4 SentPackets 1943
scalar RSUScenario.node[2].nic.mac1609_4 SentAcknowledgements 0
scalar RSUScenario.node[2].nic.mac1609_4 SNIRLostPackets 100
scalar RSUScenario.node[2].nic.mac1609_4 RXTXLostPackets 0
scalar RSUScenario.node[2].nic.mac1609_4 TotalLostPackets 100
scalar RSUScenario.node[2].nic.mac1609_4 DroppedPacketsInMac 0
scalar RSUScenario.node[2].nic.mac1609_4 TooLittleTime 0
scalar RSUScenario.node[2].nic.mac1609_4 TimesIntoBackoff 3113
scalar RSUScenario.node[2].nic.mac1609_4 SlotsBackoff 4643
scalar RSUScenario.node[2].nic.mac1609_4 NumInternalContention 0
scalar RSUScenario.node[2].nic.mac1609_4 totalBusyTime 11.591994740301
scalar RSUScenario.node[2].nic.mac1609_4 throughputMetricMac:last 182.31577806739
attr source throughputSignalMac
attr title "throughputMetricMac, last"
scalar RSUScenario.node[2].nic.mac1609_4 throughputMetricMac:count 36454
attr source throughputSignalMac
attr title "throughputMetricMac, count"
scalar RSUScenario.node[2].nic.mac1609_4 throughputMetricMac:sum 4553806.5592248
attr source throughputSignalMac
attr title "throughputMetricMac, sum"
scalar RSUScenario.node[2].nic.mac1609_4 throughputMetricMac:mean 124.91925602745
attr source throughputSignalMac
attr title "throughputMetricMac, mean"
scalar RSUScenario.node[2].veinsmobility startTime 6000
scalar RSUScenario.node[2].veinsmobility totalTime 194000
scalar RSUScenario.node[2].veinsmobility stopTime 200000
scalar RSUScenario.node[2].veinsmobility minSpeed 0.75509291509716
scalar RSUScenario.node[2].veinsmobility maxSpeed 13.987930055733
scalar RSUScenario.node[2].veinsmobility totalDistance 512.96064980434
scalar RSUScenario.node[2].veinsmobility totalCO2Emission 270.36112474224
scalar RSUScenario.node[3].appl generatedWSMs 1
scalar RSUScenario.node[3].appl receivedWSMs 57
scalar RSUScenario.node[3].appl generatedBSMs 1889
scalar RSUScenario.node[3].appl receivedBSMs 36449
scalar RSUScenario.node[3].appl generatedWSAs 3
scalar RSUScenario.node[3].appl receivedWSAs 103
scalar RSUScenario.node[3].appl beaconInterval 0.1
scalar RSUScenario.node[3].nic.phy80211p busyTime 0.037248888888914
scalar RSUScenario.node[3].nic.phy80211p ncollisions 57
scalar RSUScenario.node[3].nic.mac1609_4 throughputMetricMac 183.0909727699
scalar RSUScenario.node[3].nic.mac1609_4 throughputMbps 0.1607718085951
scalar RSUScenario.node[3].nic.mac1609_4 throughputControlMbps 0
scalar RSUScenario.node[3].nic.mac1609_4 receivedFramesLowerMsg 36609
scalar RSUScenario.node[3].nic.mac1609_4 receivedBitsLowerPackets 0
scalar RSUScenario.node[3].nic.mac1609_4 receivedBitsLoserWsm 0
scalar RSUScenario.node[3].nic.mac1609_4 packetsNotForMe 0
scalar RSUScenario.node[3].nic.mac1609_4 receivedTotalBits 32146288
scalar RSUScenario.node[3].nic.mac1609_4 collisionsPktNonDecoded 0
scalar RSUScenario.node[3].nic.mac1609_4 chUtilizationCCH 0
scalar RSUScenario.node[3].nic.mac1609_4 chUtilizationSCH1 0
scalar RSUScenario.node[3].nic.mac1609_4 chUtilizationSCH2 0
scalar RSUScenario.node[3].nic.mac1609_4 chUtilizationSCH3 0
scalar RSUScenario.node[3].nic.mac1609_4 chUtilizationSCH4 0
scalar RSUScenario.node[3].nic.mac1609_4 chUtilizationHPPS 0
scalar RSUScenario.node[3].nic.mac1609_4 chUtilizationCRIT_SOL 0
scalar RSUScenario.node[3].nic.mac1609_4 previousSignalQualityCCH 0
scalar RSUScenario.node[3].nic.mac1609_4 previousSignalQualitySCH1 0
scalar RSUScenario.node[3].nic.mac1609_4 previousSignalQualitySCH2 0
scalar RSUScenario.node[3].nic.mac1609_4 previousSignalQualitySCH3 0
scalar RSUScenario.node[3].nic.mac1609_4 previousSignalQualitySCH4 0
scalar RSUScenario.node[3].nic.mac1609_4 chPacketsCCH 1892
scalar RSUScenario.node[3].nic.mac1609_4 chPacketsSCH1 0
scalar RSUScenario.node[3].nic.mac1609_4 chPacketsSCH2 1
scalar RSUScenario.node[3].nic.mac1609_4 chPacketsSCH3 0
scalar RSUScenario.node[3].nic.mac1609_4 chPacketsSCH4 0
scalar RSUScenario.node[3].nic.mac1609_4 ReceivedUnicastPackets 0
scalar RSUScenario.node[3].nic.mac1609_4 ReceivedBroadcasts 36609
scalar RSUScenario.node[3].nic.mac1609_4 SentPackets 1893
scalar RSUScenario.node[3].nic.mac1609_4 SentAcknowledgements 0
scalar RSUScenario.node[3].nic.mac1609_4 SNIRLostPackets 116
scalar RSUScenario.node[3].nic.mac1609_4 RXTXLostPackets 0
scalar RSUScenario.node[3].nic.mac1609_4 TotalLostPackets 116
scalar RSUScenario.node[3].nic.mac1609_4 DroppedPacketsInMac 0
scalar RSUScenario.node[3].nic.mac1609_4 TooLittleTime 0
scalar RSUScenario.node[3].nic.mac1609_4 TimesIntoBackoff 1893
scalar RSUScenario.node[3].nic.mac1609_4 SlotsBackoff 2857
scalar RSUScenario.node[3].nic.mac1609_4 NumInternalContention 0
scalar RSUScenario.node[3].nic.mac1609_4 totalBusyTime 11.185420179082
scalar RSUScenario.node[3].nic.mac1609_4 throughputMetricMac:last 183.0909727699
attr source throughputSignalMac
attr title "throughputMetricMac, last"
scalar RSUScenario.node[3].nic.mac1609_4 throughputMetricMac:count 36609
attr source throughputSignalMac
attr title "throughputMetricMac, count"
scalar RSUScenario.node[3].nic.mac1609_4 throughputMetricMac:sum 4566964.4249464
attr source throughputSignalMac
attr title "throughputMetricMac, sum"
scalar RSUScenario.node[3].nic.mac1609_4 throughputMetricMac:mean 124.74977259544
attr source throughputSignalMac
attr title "throughputMetricMac, mean"
scalar RSUScenario.node[3].veinsmobility startTime 11000
scalar RSUScenario.node[3].veinsmobility totalTime 189000
scalar RSUScenario.node[3].veinsmobility stopTime 200000
scalar RSUScenario.node[3].veinsmobility minSpeed 0.98564389594301
scalar RSUScenario.node[3].veinsmobility maxSpeed 13.979706056794
scalar RSUScenario.node[3].veinsmobility totalDistance 493.42334988291
scalar RSUScenario.node[3].veinsmobility totalCO2Emission 263.12705076468
scalar RSUScenario.manager roiArea 0
scalar RSUScenario.rsu[0].appl generatedWSMs 24
scalar RSUScenario.rsu[0].appl receivedWSMs 24
scalar RSUScenario.rsu[0].appl generatedBSMs 0
scalar RSUScenario.rsu[0].appl receivedBSMs 28503
scalar RSUScenario.rsu[0].appl generatedWSAs 0
scalar RSUScenario.rsu[0].appl receivedWSAs 108
scalar RSUScenario.rsu[0].appl beaconInterval 0.1
scalar RSUScenario.rsu[0].nic.phy80211p busyTime 0.027565440000017
scalar RSUScenario.rsu[0].nic.phy80211p ncollisions 73
scalar RSUScenario.rsu[0].nic.mac1609_4 ReceivedUnicastPackets 0
scalar RSUScenario.rsu[0].nic.mac1609_4 ReceivedBroadcasts 28635
scalar RSUScenario.rsu[0].nic.mac1609_4 SentPackets 17
scalar RSUScenario.rsu[0].nic.mac1609_4 SentAcknowledgements 0
scalar RSUScenario.rsu[0].nic.mac1609_4 SNIRLostPackets 146
scalar RSUScenario.rsu[0].nic.mac1609_4 RXTXLostPackets 0
scalar RSUScenario.rsu[0].nic.mac1609_4 TotalLostPackets 146
scalar RSUScenario.rsu[0].nic.mac1609_4 DroppedPacketsInMac 7
scalar RSUScenario.rsu[0].nic.mac1609_4 TooLittleTime 0
scalar RSUScenario.rsu[0].nic.mac1609_4 TimesIntoBackoff 26
scalar RSUScenario.rsu[0].nic.mac1609_4 SlotsBackoff 22
scalar RSUScenario.rsu[0].nic.mac1609_4 NumInternalContention 0
scalar RSUScenario.rsu[0].nic.mac1609_4 totalBusyTime 5.503033
scalar RSUScenario.metricsApplication.metrics packetsDeliveredToMetrics 201
scalar RSUScenario.metricsApplication.metrics throughputMetric 1.005
scalar RSUScenario.metricsApplication.metrics throughputMetric:last 1.005
attr source throughputSignal
attr title "throughputMetric, last"
scalar RSUScenario.metricsApplication.metrics throughputMetric:count 201
attr source throughputSignal
attr title "throughputMetric, count"
scalar RSUScenario.metricsApplication.metrics throughputMetric:sum 205.87803094812
attr source throughputSignal
attr title "throughputMetric, sum"
scalar RSUScenario.metricsApplication.metrics throughputMetric:mean 1.0242688106872
attr source throughputSignal
attr title "throughputMetric, mean"
scalar RSUScenario.metricsApplication.appl generatedWSMs 0
scalar RSUScenario.metricsApplication.appl receivedWSMs 0
scalar RSUScenario.metricsApplication.appl generatedBSMs 0
scalar RSUScenario.metricsApplication.appl receivedBSMs 0
scalar RSUScenario.metricsApplication.appl generatedWSAs 0
scalar RSUScenario.metricsApplication.appl receivedWSAs 0
scalar RSUScenario.metricsApplication.appl beaconInterval 1
scalar RSUScenario.metricsApplication.nic.phy80211p busyTime 0
scalar RSUScenario.metricsApplication.nic.phy80211p ncollisions 0
scalar RSUScenario.metricsApplication.nic.mac1609_4 throughputMetricMac 0
scalar RSUScenario.metricsApplication.nic.mac1609_4 throughputMbps 0
scalar RSUScenario.metricsApplication.nic.mac1609_4 throughputControlMbps 0
scalar RSUScenario.metricsApplication.nic.mac1609_4 receivedFramesLowerMsg 0
scalar RSUScenario.metricsApplication.nic.mac1609_4 receivedBitsLowerPackets 0
scalar RSUScenario.metricsApplication.nic.mac1609_4 receivedBitsLoserWsm 0
scalar RSUScenario.metricsApplication.nic.mac1609_4 packetsNotForMe 0
scalar RSUScenario.metricsApplication.nic.mac1609_4 receivedTotalBits 0
scalar RSUScenario.metricsApplication.nic.mac1609_4 collisionsPktNonDecoded 0
scalar RSUScenario.metricsApplication.nic.mac1609_4 chUtilizationCCH 0
scalar RSUScenario.metricsApplication.nic.mac1609_4 chUtilizationSCH1 0
scalar RSUScenario.metricsApplication.nic.mac1609_4 chUtilizationSCH2 0
scalar RSUScenario.metricsApplication.nic.mac1609_4 chUtilizationSCH3 0
scalar RSUScenario.metricsApplication.nic.mac1609_4 chUtilizationSCH4 0
scalar RSUScenario.metricsApplication.nic.mac1609_4 chUtilizationHPPS 0
scalar RSUScenario.metricsApplication.nic.mac1609_4 chUtilizationCRIT_SOL 0
scalar RSUScenario.metricsApplication.nic.mac1609_4 previousSignalQualityCCH 0
scalar RSUScenario.metricsApplication.nic.mac1609_4 previousSignalQualitySCH1 0
scalar RSUScenario.metricsApplication.nic.mac1609_4 previousSignalQualitySCH2 0
scalar RSUScenario.metricsApplication.nic.mac1609_4 previousSignalQualitySCH3 0
scalar RSUScenario.metricsApplication.nic.mac1609_4 previousSignalQualitySCH4 0
scalar RSUScenario.metricsApplication.nic.mac1609_4 chPacketsCCH 0
scalar RSUScenario.metricsApplication.nic.mac1609_4 chPacketsSCH1 0
scalar RSUScenario.metricsApplication.nic.mac1609_4 chPacketsSCH2 0
scalar RSUScenario.metricsApplication.nic.mac1609_4 chPacketsSCH3 0
scalar RSUScenario.metricsApplication.nic.mac1609_4 chPacketsSCH4 0
scalar RSUScenario.metricsApplication.nic.mac1609_4 ReceivedUnicastPackets 0
scalar RSUScenario.metricsApplication.nic.mac1609_4 ReceivedBroadcasts 0
scalar RSUScenario.metricsApplication.nic.mac1609_4 SentPackets 0
scalar RSUScenario.metricsApplication.nic.mac1609_4 SentAcknowledgements 0
scalar RSUScenario.metricsApplication.nic.mac1609_4 SNIRLostPackets 0
scalar RSUScenario.metricsApplication.nic.mac1609_4 RXTXLostPackets 0
scalar RSUScenario.metricsApplication.nic.mac1609_4 TotalLostPackets 0
scalar RSUScenario.metricsApplication.nic.mac1609_4 DroppedPacketsInMac 0
scalar RSUScenario.metricsApplication.nic.mac1609_4 TooLittleTime 0
scalar RSUScenario.metricsApplication.nic.mac1609_4 TimesIntoBackoff 0
scalar RSUScenario.metricsApplication.nic.mac1609_4 SlotsBackoff 0
scalar RSUScenario.metricsApplication.nic.mac1609_4 NumInternalContention 0
scalar RSUScenario.metricsApplication.nic.mac1609_4 totalBusyTime 100.00018082901
scalar RSUScenario.metricsApplication.nic.mac1609_4 throughputMetricMac:last nan
attr source throughputSignalMac
attr title "throughputMetricMac, last"
scalar RSUScenario.metricsApplication.nic.mac1609_4 throughputMetricMac:count 0
attr source throughputSignalMac
attr title "throughputMetricMac, count"
scalar RSUScenario.metricsApplication.nic.mac1609_4 throughputMetricMac:sum 0
attr source throughputSignalMac
attr title "throughputMetricMac, sum"
scalar RSUScenario.metricsApplication.nic.mac1609_4 throughputMetricMac:mean -nan
attr source throughputSignalMac
attr title "throughputMetricMac, mean"

