version 2
run CCH_SCH_Safety_B_100Bytes_Q_1-0-20180913-04:11:49-3484
attr configname CCH_SCH_Safety_B_100Bytes_Q_1
attr datetime 20180913-04:11:49
attr experiment CCH_SCH_Safety_B_100Bytes_Q_1
attr inifile omnetpp.ini
attr iterationvars $0=1
attr iterationvarsf 1-
attr measurement $0=1
attr network vanets.RSUScenario
attr processid 3484
attr repetition 0
attr replication #0
attr resultdir results
attr runnumber 0
attr seedset 0
param **.debug false
param **.coreDebug false
param *.annotations.draw false
param *.rsu[*].appl.beaconLengthBits 800bit
param *.node[*].appl.beaconLengthBits 800bit
param *.metricsApplication.appl.beaconLengthBits 800bit
param *.node[*].appl.sendBeacons true
param *.rsu[*].appl.sendBeacons false
param *.metricsApplicaiton[*].appl.sendBeacons false
param *.node[*].appl.dataOnSch true
param *.rsu[*].appl.dataOnSch false
param *.metricsApplication[*].appl.dataOnSch false
param *.node[*].appl.sendData true
param *.rsu[*].appl.sendData true
param *.metricsApplication[*].appl.sendData false
param *.node[*].appl.beaconInterval 0.1s
param *.rsu[*].appl.beaconInterval 0.1s
param *.metricsApplication[*].appl.beaconInterval 0.1s
param *.node[*].appl.beaconPriority 3
param *.rsu[*].appl.beaconPriority 3
param *.metricsApplication[*].appl.beaconPriority 3
param *.node[*].appl.dataPriority 2
param *.rsu[*].appl.dataPriority 2
param *.metricsApplication.appl.beaconPriority 2
param *.**.nic.mac1609_4.queueSize 1
param *.**.nic.mac1609_4.useServiceChannel true
param *.manager.launchConfig "xmldoc(\"erlangen.launchd.xml\")"
param **.debug false
param **.coreDebug false
param *.playgroundSizeX 2500m
param *.playgroundSizeY 2500m
param *.playgroundSizeZ 50m
param *.annotations.draw false
param *.obstacles.debug false
param *.obstacles.obstacles "xmldoc(\"config.xml\", \"//AnalogueModel[@type='SimpleObstacleShadowing']/obstacles\")"
param *.world.useTorus false
param *.world.use2D false
param *.manager.updateInterval 1s
param *.manager.host "\"localhost\""
param *.manager.port 9999
param *.manager.autoShutdown true
param *.manager.launchConfig "xmldoc(\"erlangen.launchd.xml\")"
param *.manager.moduleType "\"vanets.CarWithMetrics\""
param *.manager.moduleName "\"node\""
param *.manager.moduleDisplayString "\"\""
param *.manager.margin 25
param *.manager.numVehicles 5
param *.manager.debug true
param *.rsu[0].mobility.x 2000
param *.rsu[0].mobility.y 2000
param *.rsu[0].mobility.z 3
param *.rsu[*].applType "\"TraCIDemoRSU11p\""
param *.rsu[*].appl.headerLength "80 bit"
param *.rsu[*].appl.sendBeacons false
param *.rsu[*].appl.dataOnSch false
param *.rsu[*].appl.beaconInterval 1s
param *.rsu[*].appl.beaconUserPriority 7
param *.rsu[*].appl.dataUserPriority 5
param *.metricsApplication.applType "\"TraCIDemoRSU11p\""
param *.metricsApplication.appl.debug false
param *.metricsApplication.appl.headerLength "80 bit"
param *.metricsApplication.appl.sendBeacons false
param *.metricsApplication.appl.dataOnSch false
param *.metricsApplication.appl.beaconInterval 1s
param *.metricsApplication.appl.beaconUserPriority 7
param *.metricsApplication.appl.dataUserPriority 2
param *.connectionManager.sendDirect true
param *.connectionManager.maxInterfDist 2600m
param *.connectionManager.drawMaxIntfDist false
param *.**.nic.mac1609_4.useServiceChannel false
param *.**.nic.mac1609_4.txPower 100mW
param *.**.nic.mac1609_4.bitrate 6Mbps
param *.**.nic.phy80211p.sensitivity -89dBm
param *.**.nic.mac1609_4.queueSize 1
param *.**.nic.phy80211p.useThermalNoise true
param *.**.nic.phy80211p.thermalNoise -110dBm
param *.**.nic.phy80211p.decider "xmldoc(\"config.xml\", \"/root/Decider[@type='Decider80211p']\")"
param *.**.nic.phy80211p.decider.collectCollisionStats true
param *.**.nic.phy80211p.analogueModels "xmldoc(\"config.xml\")"
param *.**.nic.phy80211p.usePropagationDelay true
param *.**.nic.phy80211p.collectCollisionStatistics true
param *.**.nic.phy80211p.antenna "xmldoc(\"antenna.xml\", \"/root/Antenna[@id='monopole']\")"
param *.node[*].applType "\"TraCIDemo11p\""
param *.node[*].appl.headerLength "80 bit"
param *.node[*].appl.sendBeacons false
param *.node[*].appl.dataOnSch false
param *.node[*].appl.beaconInterval 1s
param *.node[*].veinsmobilityType.debug true
param *.node[*].veinsmobility.x 0
param *.node[*].veinsmobility.y 0
param *.node[*].veinsmobility.z 1.895
param *.node[*0].veinsmobility.accidentCount 1
param *.node[*0].veinsmobility.accidentStart 10s
param *.node[*0].veinsmobility.accidentDuration 30s

vector 0 RSUScenario.node[0].veinsmobility posx ETV
vector 1 RSUScenario.node[0].veinsmobility posy ETV
vector 2 RSUScenario.node[0].veinsmobility speed ETV
vector 3 RSUScenario.node[1].veinsmobility posx ETV
vector 4 RSUScenario.node[1].veinsmobility posy ETV
vector 5 RSUScenario.node[0].veinsmobility acceleration ETV
vector 6 RSUScenario.node[0].veinsmobility co2emission ETV
vector 7 RSUScenario.node[1].veinsmobility speed ETV
vector 8 RSUScenario.node[1].veinsmobility acceleration ETV
vector 9 RSUScenario.node[1].veinsmobility co2emission ETV
vector 10 RSUScenario.node[2].veinsmobility posx ETV
vector 11 RSUScenario.node[2].veinsmobility posy ETV
vector 12 RSUScenario.node[2].veinsmobility speed ETV
vector 13 RSUScenario.node[2].veinsmobility acceleration ETV
vector 14 RSUScenario.node[2].veinsmobility co2emission ETV
vector 15 RSUScenario.node[3].veinsmobility posx ETV
vector 16 RSUScenario.node[3].veinsmobility posy ETV
vector 17 RSUScenario.node[4].veinsmobility posx ETV
vector 18 RSUScenario.node[4].veinsmobility posy ETV
vector 19 RSUScenario.node[3].veinsmobility speed ETV
vector 20 RSUScenario.node[3].veinsmobility acceleration ETV
vector 21 RSUScenario.node[3].veinsmobility co2emission ETV
vector 22 RSUScenario.node[4].veinsmobility speed ETV
vector 23 RSUScenario.node[4].veinsmobility acceleration ETV
vector 24 RSUScenario.node[4].veinsmobility co2emission ETV
vector 25 RSUScenario.node[5].veinsmobility posx ETV
vector 26 RSUScenario.node[5].veinsmobility posy ETV
vector 27 RSUScenario.node[5].veinsmobility speed ETV
vector 28 RSUScenario.node[5].veinsmobility acceleration ETV
vector 29 RSUScenario.node[5].veinsmobility co2emission ETV
vector 30 RSUScenario.node[6].veinsmobility posx ETV
vector 31 RSUScenario.node[6].veinsmobility posy ETV
vector 32 RSUScenario.node[6].veinsmobility speed ETV
vector 33 RSUScenario.node[6].veinsmobility acceleration ETV
vector 34 RSUScenario.node[6].veinsmobility co2emission ETV
vector 35 RSUScenario.node[7].veinsmobility posx ETV
vector 36 RSUScenario.node[7].veinsmobility posy ETV
vector 37 RSUScenario.node[7].veinsmobility speed ETV
vector 38 RSUScenario.node[7].veinsmobility acceleration ETV
vector 39 RSUScenario.node[7].veinsmobility co2emission ETV
vector 40 RSUScenario.node[8].veinsmobility posx ETV
vector 41 RSUScenario.node[8].veinsmobility posy ETV
vector 42 RSUScenario.node[8].veinsmobility speed ETV
vector 43 RSUScenario.node[8].veinsmobility acceleration ETV
vector 44 RSUScenario.node[8].veinsmobility co2emission ETV
vector 45 RSUScenario.node[9].veinsmobility posx ETV
vector 46 RSUScenario.node[9].veinsmobility posy ETV
vector 47 RSUScenario.node[9].veinsmobility speed ETV
vector 48 RSUScenario.node[9].veinsmobility acceleration ETV
vector 49 RSUScenario.node[9].veinsmobility co2emission ETV
vector 50 RSUScenario.node[10].veinsmobility posx ETV
vector 51 RSUScenario.node[10].veinsmobility posy ETV
vector 52 RSUScenario.node[10].veinsmobility speed ETV
vector 53 RSUScenario.node[10].veinsmobility acceleration ETV
vector 54 RSUScenario.node[10].veinsmobility co2emission ETV
vector 55 RSUScenario.node[11].veinsmobility posx ETV
vector 56 RSUScenario.node[11].veinsmobility posy ETV
vector 57 RSUScenario.node[11].veinsmobility speed ETV
vector 58 RSUScenario.node[11].veinsmobility acceleration ETV
vector 59 RSUScenario.node[11].veinsmobility co2emission ETV
vector 60 RSUScenario.node[12].veinsmobility posx ETV
vector 61 RSUScenario.node[12].veinsmobility posy ETV
vector 62 RSUScenario.node[12].veinsmobility speed ETV
vector 63 RSUScenario.node[12].veinsmobility acceleration ETV
vector 64 RSUScenario.node[12].veinsmobility co2emission ETV
vector 65 RSUScenario.node[13].veinsmobility posx ETV
vector 66 RSUScenario.node[13].veinsmobility posy ETV
vector 67 RSUScenario.node[13].veinsmobility speed ETV
vector 68 RSUScenario.node[13].veinsmobility acceleration ETV
vector 69 RSUScenario.node[13].veinsmobility co2emission ETV
vector 70 RSUScenario.node[14].veinsmobility posx ETV
vector 71 RSUScenario.node[14].veinsmobility posy ETV
vector 72 RSUScenario.node[14].veinsmobility speed ETV
vector 73 RSUScenario.node[15].veinsmobility posx ETV
vector 74 RSUScenario.node[15].veinsmobility posy ETV
vector 75 RSUScenario.node[14].veinsmobility acceleration ETV
vector 76 RSUScenario.node[14].veinsmobility co2emission ETV
vector 77 RSUScenario.node[15].veinsmobility speed ETV
vector 78 RSUScenario.node[16].veinsmobility posx ETV
vector 79 RSUScenario.node[16].veinsmobility posy ETV
vector 80 RSUScenario.node[15].veinsmobility acceleration ETV
vector 81 RSUScenario.node[15].veinsmobility co2emission ETV
vector 82 RSUScenario.node[16].veinsmobility speed ETV
vector 83 RSUScenario.node[17].veinsmobility posx ETV
vector 84 RSUScenario.node[17].veinsmobility posy ETV
vector 85 RSUScenario.node[16].veinsmobility acceleration ETV
vector 86 RSUScenario.node[16].veinsmobility co2emission ETV
vector 87 RSUScenario.node[17].veinsmobility speed ETV
vector 88 RSUScenario.node[18].veinsmobility posx ETV
vector 89 RSUScenario.node[18].veinsmobility posy ETV
vector 90 RSUScenario.node[17].veinsmobility acceleration ETV
vector 91 RSUScenario.node[17].veinsmobility co2emission ETV
vector 92 RSUScenario.node[18].veinsmobility speed ETV
vector 93 RSUScenario.node[19].veinsmobility posx ETV
vector 94 RSUScenario.node[19].veinsmobility posy ETV
vector 95 RSUScenario.node[18].veinsmobility acceleration ETV
vector 96 RSUScenario.node[18].veinsmobility co2emission ETV
vector 97 RSUScenario.node[19].veinsmobility speed ETV
vector 98 RSUScenario.node[20].veinsmobility posx ETV
vector 99 RSUScenario.node[20].veinsmobility posy ETV
vector 100 RSUScenario.node[19].veinsmobility acceleration ETV
vector 101 RSUScenario.node[19].veinsmobility co2emission ETV
vector 102 RSUScenario.node[20].veinsmobility speed ETV
vector 103 RSUScenario.node[20].veinsmobility acceleration ETV
vector 104 RSUScenario.node[20].veinsmobility co2emission ETV
vector 105 RSUScenario.node[21].veinsmobility posx ETV
vector 106 RSUScenario.node[21].veinsmobility posy ETV
vector 107 RSUScenario.node[21].veinsmobility speed ETV
vector 108 RSUScenario.node[22].veinsmobility posx ETV
vector 109 RSUScenario.node[22].veinsmobility posy ETV
vector 110 RSUScenario.node[21].veinsmobility acceleration ETV
vector 111 RSUScenario.node[21].veinsmobility co2emission ETV
vector 112 RSUScenario.node[22].veinsmobility speed ETV
vector 113 RSUScenario.node[22].veinsmobility acceleration ETV
vector 114 RSUScenario.node[22].veinsmobility co2emission ETV
vector 115 RSUScenario.node[23].veinsmobility posx ETV
vector 116 RSUScenario.node[23].veinsmobility posy ETV
vector 117 RSUScenario.node[23].veinsmobility speed ETV
vector 118 RSUScenario.node[23].veinsmobility acceleration ETV
vector 119 RSUScenario.node[23].veinsmobility co2emission ETV
vector 120 RSUScenario.node[24].veinsmobility posx ETV
vector 121 RSUScenario.node[24].veinsmobility posy ETV
vector 122 RSUScenario.node[24].veinsmobility speed ETV
vector 123 RSUScenario.node[24].veinsmobility acceleration ETV
vector 124 RSUScenario.node[24].veinsmobility co2emission ETV
vector 125 RSUScenario.node[25].veinsmobility posx ETV
vector 126 RSUScenario.node[25].veinsmobility posy ETV
vector 127 RSUScenario.node[25].veinsmobility speed ETV
vector 128 RSUScenario.node[25].veinsmobility acceleration ETV
vector 129 RSUScenario.node[25].veinsmobility co2emission ETV
vector 130 RSUScenario.node[26].veinsmobility posx ETV
vector 131 RSUScenario.node[26].veinsmobility posy ETV
vector 132 RSUScenario.node[26].veinsmobility speed ETV
vector 133 RSUScenario.node[27].veinsmobility posx ETV
vector 134 RSUScenario.node[27].veinsmobility posy ETV
vector 135 RSUScenario.node[26].veinsmobility acceleration ETV
vector 136 RSUScenario.node[26].veinsmobility co2emission ETV
vector 137 RSUScenario.node[27].veinsmobility speed ETV
vector 138 RSUScenario.node[28].veinsmobility posx ETV
vector 139 RSUScenario.node[28].veinsmobility posy ETV
vector 140 RSUScenario.node[27].veinsmobility acceleration ETV
vector 141 RSUScenario.node[27].veinsmobility co2emission ETV
vector 142 RSUScenario.node[28].veinsmobility speed ETV
vector 143 RSUScenario.node[28].veinsmobility acceleration ETV
vector 144 RSUScenario.node[28].veinsmobility co2emission ETV
vector 145 RSUScenario.node[29].veinsmobility posx ETV
vector 146 RSUScenario.node[29].veinsmobility posy ETV
vector 147 RSUScenario.node[29].veinsmobility speed ETV
vector 148 RSUScenario.node[30].veinsmobility posx ETV
vector 149 RSUScenario.node[30].veinsmobility posy ETV
vector 150 RSUScenario.node[29].veinsmobility acceleration ETV
vector 151 RSUScenario.node[29].veinsmobility co2emission ETV
vector 152 RSUScenario.node[30].veinsmobility speed ETV
vector 153 RSUScenario.node[31].veinsmobility posx ETV
vector 154 RSUScenario.node[31].veinsmobility posy ETV
vector 155 RSUScenario.node[30].veinsmobility acceleration ETV
vector 156 RSUScenario.node[30].veinsmobility co2emission ETV
vector 157 RSUScenario.node[31].veinsmobility speed ETV
vector 158 RSUScenario.node[32].veinsmobility posx ETV
vector 159 RSUScenario.node[32].veinsmobility posy ETV
vector 160 RSUScenario.node[31].veinsmobility acceleration ETV
vector 161 RSUScenario.node[31].veinsmobility co2emission ETV
vector 162 RSUScenario.node[32].veinsmobility speed ETV
vector 163 RSUScenario.node[33].veinsmobility posx ETV
vector 164 RSUScenario.node[33].veinsmobility posy ETV
vector 165 RSUScenario.node[32].veinsmobility acceleration ETV
vector 166 RSUScenario.node[32].veinsmobility co2emission ETV
vector 167 RSUScenario.node[33].veinsmobility speed ETV
vector 168 RSUScenario.node[33].veinsmobility acceleration ETV
vector 169 RSUScenario.node[33].veinsmobility co2emission ETV
vector 170 RSUScenario.node[34].veinsmobility posx ETV
vector 171 RSUScenario.node[34].veinsmobility posy ETV
vector 172 RSUScenario.node[34].veinsmobility speed ETV
vector 173 RSUScenario.node[34].veinsmobility acceleration ETV
vector 174 RSUScenario.node[34].veinsmobility co2emission ETV
vector 175 RSUScenario.node[35].veinsmobility posx ETV
vector 176 RSUScenario.node[35].veinsmobility posy ETV
vector 177 RSUScenario.node[35].veinsmobility speed ETV
vector 178 RSUScenario.node[35].veinsmobility acceleration ETV
vector 179 RSUScenario.node[35].veinsmobility co2emission ETV
vector 180 RSUScenario.node[36].veinsmobility posx ETV
vector 181 RSUScenario.node[36].veinsmobility posy ETV
vector 182 RSUScenario.node[36].veinsmobility speed ETV
vector 183 RSUScenario.node[36].veinsmobility acceleration ETV
vector 184 RSUScenario.node[36].veinsmobility co2emission ETV
vector 185 RSUScenario.node[37].veinsmobility posx ETV
vector 186 RSUScenario.node[37].veinsmobility posy ETV
vector 187 RSUScenario.node[37].veinsmobility speed ETV
vector 188 RSUScenario.node[37].veinsmobility acceleration ETV
vector 189 RSUScenario.node[37].veinsmobility co2emission ETV
vector 190 RSUScenario.node[38].veinsmobility posx ETV
vector 191 RSUScenario.node[38].veinsmobility posy ETV
9	1436	5	1.1565087663652
9	1939	6	1.1883142423226
9	2824	7	1.1804283709916
9	3737	8	1.1786443373533
9	4650	9	1.1723574585004
9	5563	10	1.159337466769
9	6477	11	1.1988617963627
9	7886	12	1.1654425789418
9	9939	13	1.1835421226748
9	12032	14	1.1797119907796
9	14125	15	1.1558352166949
9	16218	16	1.1932956189315
9	18311	17	1.1749293615559
9	21128	18	1.1718711670424
9	23991	19	1.1663129424575
9	26854	20	1.1719650452881
9	29717	21	1.1968303886412
9	32580	22	1.1527731980618
9	36689	23	1.1898823679787
9	40850	24	1.1739700789996
9	45367	25	1.178665082705
9	49170	26	1.1709190579618
9	53175	27	1.1737067468565
9	57880	28	1.1811337488505
9	62643	29	1.1831299908486
9	67406	30	1.1694739183869
9	72169	31	1.1634196505029
9	77998	32	1.1801277088627
9	83891	33	1.174256671581
9	89784	34	1.1847195938334
9	95677	35	1.1653758239904
9	101570	36	1.1737388412296
9	108643	37	1.1810216595161
9	115786	38	1.1754990819841
9	122929	39	1.1686021256832
9	130072	40	1.172642713071
9	137216	41	1.1927510346786
9	145653	42	1.1639697994093
9	154166	43	1.184398454652
9	162679	44	1.1709349713044
9	171192	45	1.183707365748
9	179665	46	1.1566312940287
9	189546	47	1.1793231041065
9	199509	48	1.1738182213159
9	209472	49	1.1764237485128
9	219435	50	1.1732384293491
9	230921	51	1.1757252969726
9	242494	52	1.176745055667
9	254067	53	1.1892826702752
9	265640	54	1.1569270485317
9	277213	55	1.1784158578668
9	288786	56	1.1793801218004
9	300359	57	1.1691822581691
9	311932	58	1.1714015156286
9	323505	59	1.1763170927998
9	335078	60	1.195253688693
9	347434	61	1.1778385154062
9	359778	62	1.1746269583492
9	372484	63	1.1775852932818
9	384057	64	1.1684861314724
9	395630	65	1.1622842464938
9	407203	66	1.1869148662197
9	418776	67	1.1780141200782
9	430349	68	1.1739463376914
9	441922	69	1.1799387889756
9	453335	70	1.174308261326
9	464668	71	1.1706466285417
9	475921	72	1.1899418574671
9	487094	73	1.1528261012766
9	498187	74	1.1933382512864
9	509280	75	1.1685361803841
9	520293	76	1.1897690505326
9	531226	77	1.1732235567127
9	542079	78	1.1708875074493
9	552932	79	1.1607809542959
9	563785	80	1.1830891247408
9	574639	81	1.179961513977
9	585492	82	1.1794311117641
9	596345	83	1.1753629155317
9	608834	84	1.1595807571001
9	621417	85	1.1841339644068
9	633960	86	1.1714298116089
9	648173	87	1.1820691850193
9	662326	88	1.1622096167392
9	678263	89	1.1830770917124
9	694226	90	1.1675761108861
9	712091	91	1.1821685151623
9	730064	92	1.1830920804058
9	750053	93	1.1726351904255
9	770156	94	1.1660489767683
9	792389	95	1.1786896136945
9	814742	96	1.1819826699882
9	839339	97	1.181313879228
9	864062	98	1.1661133874944
9	891143	99	1.1657959503919
9	918356	100	1.1972330817381
9	945529	101	1.1617118849273
9	975174	102	1.1899760210706
9	1004957	103	1.1789942950214
9	1037286	104	1.159900629938
9	1069759	105	1.1845460516616
9	1102232	106	1.1686051064453
9	1137405	107	1.1855947900627
9	1172729	108	1.1606228530551
9	1208012	109	1.1762165087973
9	1246109	110	1.1721659819799
9	1284362	111	1.1783464625913
9	1322575	112	1.1713515264246
9	1360788	113	1.1748324490874
9	1399001	114	1.1727906995553
9	1437174	115	1.1960639992113
9	1475347	116	1.1634655219982
9	1513520	117	1.171265737717
9	1553855	118	1.1764894914374
9	1594190	119	1.1738522171282
9	1636043	120	1.1756687861452
9	1675536	121	1.1769951632077
9	1716052	122	1.1798257391663
9	1755705	123	1.1776584946565
9	1795518	124	1.1749066633762
9	1835371	125	1.1740114553177
9	1875304	126	1.1815973769433
9	1914917	127	1.1708675644106
9	1954210	128	1.1797925773193
9	1993063	129	1.1686148135688
9	2031676	130	1.1737420043307
9	2070129	131	1.191257151789
9	2108422	132	1.1730412705476
9	2146475	133	1.1707609156298
9	2184488	134	1.1800138715756
9	2222501	135	1.1595096454095
9	2260514	136	1.182761319322
9	2298527	137	1.1775048297953
9	2336541	138	1.1661061433437
9	2374514	139	1.1759344679536
9	2412487	140	1.1916213352378
9	2453388	141	1.1697960715052
9	2494451	142	1.1681910167588
9	2535514	143	1.1875422566961
9	2579579	144	1.1819892734881
9	2623812	145	1.1593868435735
9	2671201	146	1.1840108972973
9	2718764	147	1.1779943901281
9	2769597	148	1.1605437902921
9	2820570	149	1.1979841922969
9	2871543	150	1.1599708909844
9	2925900	151	1.1678648447281
9	2980443	152	1.1762660922018
9	3038484	153	1.1826170866949
9	3096677	154	1.1698400772643
9	3158482	155	1.1768040391124
9	3220485	156	1.1881199072554
9	3286214	157	1.1571632652907
9	3352107	158	1.1948236262516
9	3421840	159	1.1747911393209
9	3491783	160	1.1584335215824
9	3561726	161	1.1984919918663
9	3635624	162	1.1649982426846
9	3709737	163	1.1813036237372
9	3783810	164	1.1629459308854
9	3861951	165	1.1747731204431
9	3940314	166	1.1845195822789
9	4018677	167	1.1675666759444
9	4097000	168	1.1918139646262
9	4175323	169	1.1660044849921
9	4253646	170	1.1889915313046
9	4336055	171	1.1772475
9	4421141	172	1.1772475
9	4506193	173	1.1550070985462
9	4593193	174	1.1908647327901
9	4675886	175	1.1571288651327
9	4758206	176	1.194923064473
9	4840528	177	1.1701330556213
9	4923181	178	1.172079400132
9	5005464	179	1.1779105978086
9	5087985	180	1.1834596634963
9	5170505	181	1.1625030933782
9	5252801	182	1.1760895048586
9	5335001	183	1.1704363051145
9	5417110	184	1.1829085658551
9	5499405	185	1.1768675307145
9	5581978	186	1.1821829836762
9	5664365	187	1.1653586102727
9	5746526	188	1.1795418336912
9	5829059	189	1.1699260012806
9	5911099	190	1.1874040888406
9	5992660	191	1.1717023704146
9	6073397	192	1.1802374369241
9	6153819	193	1.1756549026101
9	6233970	194	1.1638845415803
9	6313785	195	1.1947419141736
9	6393782	196	1.1631210996284
9	6473699	197	1.1821337991272
9	6557265	198	1.1774474216058
9	6640829	199	1.1658425862303
9	6724345	200	1.1895290634857
8	1436	5	-0.055325754510704
8	1939	6	0.037422756803507
8	2824	7	0.011606140049278
8	3737	8	0.0054065723897008
8	4650	9	-0.011852665047627
8	5563	10	-0.04606548043537
8	6477	11	0.064830264487278
8	7886	12	-0.031253886877999
8	9939	13	0.02071267909034
8	12032	14	0.007956129039586
8	14125	15	-0.057563842338924
8	16218	16	0.050026305058661
8	18311	17	-0.0046349134774777
8	21128	18	-0.012190245987666
8	23991	19	-0.025795432577272
8	26854	20	-0.0071768068139337
8	29717	21	0.058940054764713
8	32580	22	-0.066396190862482
8	36689	23	0.042385616591976
8	40850	24	-0.0053046701779953
8	45367	25	0.0078356364004626
8	49170	26	-0.013803459118612
8	53175	27	-0.004574207204213
8	57880	28	0.015757929892667
8	62643	29	0.018788244859833
8	67406	30	-0.01963780009343
8	72169	31	-0.033896481844648
8	77998	32	0.015735846763063
8	83891	33	-0.0020863750736073
8	89784	34	0.025877754071391
8	95677	35	-0.029137440481766
8	101570	36	-0.0027889062605229
8	108643	37	0.017042812816928
8	115786	38	8.5547960932519e-05
8	122929	39	-0.018554469053116
8	130072	40	-0.0052152423207492
8	137216	41	0.048440848881405
8	145653	42	-0.034112741866718
8	154166	43	0.024808628352023
8	162679	44	-0.014094325904605
8	171192	45	0.021500273028829
8	179665	46	-0.054348885508565
8	189546	47	0.014547306701489
8	199509	48	-0.0022240866059697
8	209472	49	0.0050931874526821
8	219435	50	-0.0041662793309014
8	230921	51	0.0030924003092676
8	242494	52	0.0054157230382164
8	254067	53	0.037471103310559
8	265640	54	-0.05400578407312
8	277213	55	0.011396759315782
8	288786	56	0.012398525044167
8	300359	57	-0.01665796520279
8	311932	58	-0.0085142276333903
8	323505	59	0.0059480038665545
8	335078	60	0.054483620479004
8	347434	61	0.0020172481729082
8	359778	62	-0.0066508929982472
8	372484	63	0.001951930672577
8	384057	64	-0.022438567102654
8	395630	65	-0.036876427168156
8	407203	66	0.034243850596896
8	418776	67	0.006099342410582
8	430349	68	-0.0054875134082977
8	441922	69	0.011081018585375
8	453335	70	-0.0052306322969444
8	464668	71	-0.014388387644431
8	475921	72	0.03814360542391
8	487094	73	-0.066343453428191
8	498187	74	0.051086359566802
8	509280	75	-0.021115326979068
8	520293	76	0.037442009003522
8	531226	77	-0.010539490710168
8	542079	78	-0.015474825825853
8	552932	79	-0.041365911375679
8	563785	80	0.02448785597355
8	574639	81	0.012799395109242
8	585492	82	0.0096706217057847
8	596345	83	-0.0023264090446498
8	608834	84	-0.045081437031816
8	621417	85	0.027305449233002
8	633960	86	-0.010325324482336
8	648173	87	0.019449885827877
8	662326	88	-0.036779375093627
8	678263	89	0.024571395026417
8	694226	90	-0.020479592106616
8	712091	91	0.02158468839803
8	730064	92	0.0209562325876
8	750053	93	-0.009448244689136
8	770156	94	-0.026181708348708
8	792389	95	0.011383744745722
8	814742	96	0.018514836022708
8	839339	97	0.014215483178204
8	864062	98	-0.028078321467749
8	891143	99	-0.025690430274052
8	918356	100	0.060873670073407
8	945529	101	-0.040942046422667
8	975174	102	0.039371038211458
8	1004957	103	0.0055445116595365
8	1037286	104	-0.046373792687922
8	1069759	105	0.025575162467754
8	1102232	106	-0.020162085339608
8	1137405	107	0.027522474136074
8	1172729	108	-0.042948186358747
8	1208012	109	0.0049229908876844
8	1246109	110	-0.0066853626695875
8	1284362	111	0.010873562488187
8	1322575	112	-0.009437441444283
8	1360788	113	0.0012337465078518
8	1399001	114	-0.0044668074567906
8	1437174	115	0.057145283337579
8	1475347	116	-0.036245275243548
8	1513520	117	-0.01070720521966
8	1553855	118	0.0047671268273715
8	1594190	119	-0.0029505811754562
8	1636043	120	0.0023244945461758
8	1675536	121	0.0055658659807198
8	1716052	122	0.012323691820105
8	1755705	123	0.004951388206488
8	1795518	124	-0.0029841432115063
8	1835371	125	-0.0049900989850153
8	1875304	126	0.015699424919957
8	1914917	127	-0.014742964865743
8	1954210	128	0.010845492975528
8	1993063	129	-0.020356637525967
8	2031676	130	-0.0039815094270226
8	2070129	131	0.042394487730538
8	2108422	132	-0.010670738249448
8	2146475	133	-0.015451776125701
8	2184488	134	0.011051167918292
8	2222501	135	-0.045789984594901
8	2260514	136	0.023098942021736
8	2298527	137	0.0059934063756373
8	2336541	138	-0.025597577817583
8	2374514	139	0.0044141849826296
8	2412487	140	0.044918446381214
8	2453388	141	-0.018359521103169
8	2494451	142	-0.020515834411425
8	2535514	143	0.033546213784979
8	2579579	144	0.014471559018906
8	2623812	145	-0.047822941560298
8	2671201	146	0.024355557139238
8	2718764	147	0.0052470334048849
8	2769597	148	-0.042680098801308
8	2820570	149	0.062096495805438
8	2871543	150	-0.046326661605336
8	2925900	151	-0.019286292081233
8	2980443	152	0.0061101509749681
8	3038484	153	0.022195505686492
8	3096677	154	-0.014976031654644
8	3158482	155	0.0057586759632815
8	3220485	156	0.034639524819795
8	3286214	157	-0.052950100006355
8	3352107	158	0.05455218226416
8	3421840	159	-0.0050521397982568
8	3491783	160	-0.049022322685536
8	3561726	161	0.06373394469847
8	3635624	162	-0.032456449601644
8	3709737	163	0.015057840387777
8	3783810	164	-0.036155049779659
8	3861951	165	0.0005507548080963
8	3940314	166	0.026342979156956
8	4018677	167	-0.02238908452758
8	4097000	168	0.044561714231451
8	4175323	169	-0.029215942825734
8	4253646	170	0.035085902652807
8	4336055	171	0
8	4421141	172	0
8	4506193	173	-0.060280868848268
8	4593193	174	0.043631067900505
8	4675886	175	-0.052640336297271
8	4758206	176	0.055386830596641
8	4840528	177	-0.017117896964515
8	4923181	178	-0.0097833836722809
8	5005464	179	0.0070674739254173
8	5087985	180	0.020659168140911
8	5170505	181	-0.038006684076713
8	5252801	182	0.0035822686267137
8	5335001	183	-0.012179554178147
8	5417110	184	0.022880084385785
8	5499405	185	0.0037669112498406
8	5581978	186	0.017242066339046
8	5664365	187	-0.029850986757083
8	5746526	188	0.012040970387817
8	5829059	189	-0.01528983691565
8	5911099	190	0.033031509956345
8	5992660	191	-0.01267008481793
8	6073397	192	0.011548189698563
8	6153819	193	-0.0020173039552498
8	6233970	194	-0.033538563164055
8	6313785	195	0.052307849950416
8	6393782	196	-0.037706782895839
8	6473699	197	0.017791364565104
8	6557265	198	0.0031166899942845
8	6640829	199	-0.028385523295987
8	6724345	200	0.037978736476766
7	933	4	1.3815341939982
7	1436	5	1.3262084394874
7	1939	6	1.363631196291
7	2824	7	1.3752373363402
7	3737	8	1.3806439087299
7	4650	9	1.3687912436823
7	5563	10	1.3227257632469
7	6477	11	1.3875560277342
7	7886	12	1.3563021408562
7	9939	13	1.3770148199466
7	12032	14	1.3849709489861
7	14125	15	1.3274071066472
7	16218	16	1.3774334117059
7	18311	17	1.3727984982284
7	21128	18	1.3606082522407
7	23991	19	1.3348128196635
7	26854	20	1.3276360128495
7	29717	21	1.3865760676142
7	32580	22	1.3201798767518
7	36689	23	1.3625654933437
7	40850	24	1.3572608231657
7	45367	25	1.3650964595662
7	49170	26	1.3512930004476
7	53175	27	1.3467187932434
7	57880	28	1.362476723136
7	62643	29	1.3812649679959
7	67406	30	1.3616271679024
7	72169	31	1.3277306860578
7	77998	32	1.3434665328209
7	83891	33	1.3413801577473
7	89784	34	1.3672579118186
7	95677	35	1.3381204713369
7	101570	36	1.3353315650764
7	108643	37	1.3523743778933
7	115786	38	1.3524599258542
7	122929	39	1.3339054568011
7	130072	40	1.3286902144804
7	137216	41	1.3771310633618
7	145653	42	1.343018321495
7	154166	43	1.3678269498471
7	162679	44	1.3537326239425
7	171192	45	1.3752328969713
7	179665	46	1.3208840114627
7	189546	47	1.3354313181642
7	199509	48	1.3332072315582
7	209472	49	1.3383004190109
7	219435	50	1.33413413968
7	230921	51	1.3372265399893
7	242494	52	1.3426422630275
7	254067	53	1.3801133663381
7	265640	54	1.3261075822649
7	277213	55	1.3375043415807
7	288786	56	1.3499028666249
7	300359	57	1.3332449014221
7	311932	58	1.3247306737887
7	323505	59	1.3306786776553
7	335078	60	1.3851622981343
7	347434	61	1.3871795463072
7	359778	62	1.3805286533089
7	372484	63	1.3824805839815
7	384057	64	1.3600420168789
7	395630	65	1.3231655897107
7	407203	66	1.3574094403076
7	418776	67	1.3635087827182
7	430349	68	1.3580212693099
7	441922	69	1.3691022878953
7	453335	70	1.3638716555983
7	464668	71	1.3494832679539
7	475921	72	1.3876268733778
7	487094	73	1.3212834199496
7	498187	74	1.3723697795164
7	509280	75	1.3512544525373
7	520293	76	1.3886964615409
7	531226	77	1.3781569708307
7	542079	78	1.3626821450048
7	552932	79	1.3213162336292
7	563785	80	1.3458040896027
7	574639	81	1.3586034847119
7	585492	82	1.3682741064177
7	596345	83	1.3659476973731
7	608834	84	1.3208662603413
7	621417	85	1.3481717095743
7	633960	86	1.3378463850919
7	648173	87	1.3572962709198
7	662326	88	1.3205168958262
7	678263	89	1.3450882908526
7	694226	90	1.324608698746
7	712091	91	1.346193387144
7	730064	92	1.3671496197316
7	750053	93	1.3577013750425
7	770156	94	1.3315196666938
7	792389	95	1.3429034114395
7	814742	96	1.3614182474622
7	839339	97	1.3756337306404
7	864062	98	1.3475554091727
7	891143	99	1.3218649788986
7	918356	100	1.382738648972
7	945529	101	1.3417966025493
7	975174	102	1.3811676407608
7	1004957	103	1.3867121524203
7	1037286	104	1.3403383597324
7	1069759	105	1.3659135222002
7	1102232	106	1.3457514368606
7	1137405	107	1.3732739109966
7	1172729	108	1.3303257246379
7	1208012	109	1.3352487155256
7	1246109	110	1.328563352856
7	1284362	111	1.3394369153442
7	1322575	112	1.3299994738999
7	1360788	113	1.3312332204077
7	1399001	114	1.3267664129509
7	1437174	115	1.3839116962885
7	1475347	116	1.347666421045
7	1513520	117	1.3369592158253
7	1553855	118	1.3417263426527
7	1594190	119	1.3387757614772
7	1636043	120	1.3411002560234
7	1675536	121	1.3466661220041
7	1716052	122	1.3589898138242
7	1755705	123	1.3639412020307
7	1795518	124	1.3609570588192
7	1835371	125	1.3559669598342
7	1875304	126	1.3716663847542
7	1914917	127	1.3569234198884
7	1954210	128	1.3677689128639
7	1993063	129	1.347412275338
7	2031676	130	1.343430765911
7	2070129	131	1.3858252536415
7	2108422	132	1.375154515392
7	2146475	133	1.3597027392663
7	2184488	134	1.3707539071846
7	2222501	135	1.3249639225897
7	2260514	136	1.3480628646115
7	2298527	137	1.3540562709871
7	2336541	138	1.3284586931695
7	2374514	139	1.3328728781522
7	2412487	140	1.3777913245334
7	2453388	141	1.3594318034302
7	2494451	142	1.3389159690188
7	2535514	143	1.3724621828038
7	2579579	144	1.3869337418227
7	2623812	145	1.3391108002624
7	2671201	146	1.3634663574016
7	2718764	147	1.3687133908065
7	2769597	148	1.3260332920052
7	2820570	149	1.3881297878106
7	2871543	150	1.3418031262053
7	2925900	151	1.322516834124
7	2980443	152	1.328626985099
7	3038484	153	1.3508224907855
7	3096677	154	1.3358464591309
7	3158482	155	1.3416051350941
7	3220485	156	1.3762446599139
7	3286214	157	1.3232945599076
7	3352107	158	1.3778467421717
7	3421840	159	1.3727946023735
7	3491783	160	1.323772279688
7	3561726	161	1.3875062243864
7	3635624	162	1.3550497747848
7	3709737	163	1.3701076151726
7	3783810	164	1.3339525653929
7	3861951	165	1.334503320201
7	3940314	166	1.3608462993579
7	4018677	167	1.3384572148304
7	4097000	168	1.3830189290618
7	4175323	169	1.3538029862361
7	4253646	170	1.3888888888889
7	4336055	171	1.3888888888889
7	4421141	172	1.3888888888889
7	4506193	173	1.3286080200406
7	4593193	174	1.3722390879411
7	4675886	175	1.3195987516439
7	4758206	176	1.3749855822405
7	4840528	177	1.357867685276
7	4923181	178	1.3480843016037
7	5005464	179	1.3551517755291
7	5087985	180	1.37581094367
7	5170505	181	1.3378042595933
7	5252801	182	1.34138652822
7	5335001	183	1.3292069740419
7	5417110	184	1.3520870584277
7	5499405	185	1.3558539696775
7	5581978	186	1.3730960360166
7	5664365	187	1.3432450492595
7	5746526	188	1.3552860196473
7	5829059	189	1.3399961827316
7	5911099	190	1.373027692688
7	5992660	191	1.3603576078701
7	6073397	192	1.3719057975686
7	6153819	193	1.3698884936134
7	6233970	194	1.3363499304493
7	6313785	195	1.3886577803997
7	6393782	196	1.3509509975039
7	6473699	197	1.368742362069
7	6557265	198	1.3718590520633
7	6640829	199	1.3434735287673
7	6724345	200	1.3814522652441
4	452	3	1577.7175120478
4	933	4	1577.7175120478
4	1436	5	1578.1817473844
4	1939	6	1578.6515230266
4	2824	7	1579.117475654
4	3737	8	1579.5862869648
4	4650	9	1580.0546950689
4	5563	10	1580.5210820567
4	6477	11	1580.985262854
4	7886	12	1581.7919730702
4	9939	13	1582.760125488
4	12032	14	1583.730228493
4	14125	15	1584.6932273181
4	16218	16	1585.6554215169
4	18311	17	1586.6267911047
4	21128	18	1587.5962781524
4	23991	19	1588.5552835241
4	26854	20	1589.5217205575
4	29717	21	1590.4825511212
4	32580	22	1591.440856616
4	36689	23	1592.4053333895
4	40850	24	1593.3658743147
4	45367	25	1594.3306228481
4	49170	26	1595.3018005323
4	53175	27	1596.2636136133
4	57880	28	1597.2333950382
4	62643	29	1598.1944247689
4	67406	30	1599.1581535488
4	72169	31	1600.1232494442
4	77998	32	1601.0815512175
4	83891	33	1602.041725182
4	89784	34	1603.0070461575
4	95677	35	1603.9752655244
4	101570	36	1604.9316429021
4	108643	37	1605.8895550594
4	115786	38	1606.8514696704
4	122929	39	1607.8119131206
4	130072	40	1608.770668623
4	137216	41	1609.7320064818
4	145653	42	1610.6965625603
4	154166	43	1611.6549514467
4	162679	44	1612.6154163238
4	171192	45	1613.5808615293
4	179665	46	1614.549022167
4	189546	47	1615.5108598443
4	199509	48	1616.4660618817
4	209472	49	1617.4218175607
4	219435	50	1618.3842012752
4	230921	51	1619.3501014933
4	242494	52	1620.3104344532
4	254067	53	1621.2813955257
4	265640	54	1622.2442066465
4	277213	55	1623.2069757441
4	288786	56	1624.1736842962
4	300359	57	1625.1361792162
4	311932	58	1626.0923441546
4	323505	59	1627.0506468853
4	335078	60	1628.0140153756
4	347434	61	1628.9811706841
4	359778	62	1629.9475955721
4	372484	63	1630.9035217557
4	384057	64	1631.8751259651
4	395630	65	1632.8390554376
4	407203	66	1633.8045463059
4	418776	67	1634.7672162559
4	430349	68	1635.721535828
4	441922	69	1636.6879251543
4	453335	70	1637.6517748376
4	464668	71	1638.6171648875
4	475921	72	1639.5842990791
4	487094	73	1640.5459178416
4	498187	74	1641.5057094926
4	509280	75	1642.4763726005
4	520293	76	1643.4400450345
4	531226	77	1644.4022922534
4	542079	78	1645.364075968
4	552932	79	1646.3263715124
4	563785	80	1647.3728974406
4	574639	81	1648.4427516796
4	585492	82	1649.5071664751
4	596345	83	1650.5730157252
4	608834	84	1651.6350225303
4	621417	85	1652.6928949961
4	633960	86	1653.7547169188
4	648173	87	1654.8186117886
4	662326	88	1655.8861463824
4	678263	89	1657.113830531
4	694226	90	1658.4550302615
4	712091	91	1659.7857291065
4	730064	92	1661.114996098
4	750053	93	1662.4542392297
4	770156	94	1663.7945947805
4	792389	95	1665.1405570246
4	814742	96	1666.4851412689
4	839339	97	1667.8326116549
4	864062	98	1669.1688128579
4	891143	99	1670.3854994532
4	918356	100	1671.5055349944
4	945529	101	1672.4924061215
4	975174	102	1673.3605221407
4	1004957	103	1674.2126853671
4	1037286	104	1675.0659569744
4	1069759	105	1675.9144820645
4	1102232	106	1676.7676418871
4	1137405	107	1677.6161301499
4	1172729	108	1678.4644833189
4	1208012	109	1679.3188311681
4	1246109	110	1680.2024094658
4	1284362	111	1681.1128953565
4	1322575	112	1682.0226125913
4	1360788	113	1682.9346327595
4	1399001	114	1683.8392133489
4	1437174	115	1684.7395233009
4	1475347	116	1685.6560530243
4	1513520	117	1686.5681998273
4	1553855	118	1687.4718024693
4	1594190	119	1688.3814165974
4	1636043	120	1689.2807169063
4	1675536	121	1690.1833650749
4	1716052	122	1691.0890196785
4	1755705	123	1691.998326486
4	1795518	124	1692.9081434831
4	1835371	125	1693.8110837433
4	1875304	126	1694.1490409486
4	1914917	127	1694.3499297034
4	1954210	128	1694.5506637758
4	1993063	129	1694.7509999415
4	2031676	130	1694.9517364213
4	2070129	131	1695.1525052292
4	2108422	132	1695.3529062271
4	2146475	133	1695.5532385446
4	2184488	134	1695.7539165113
4	2222501	135	1695.9547837563
4	2260514	136	1696.1544982335
4	2298527	137	1696.3542142613
4	2336541	138	1696.5182264205
4	2374514	139	1696.678877295
4	2412487	140	1696.8391244337
4	2453388	141	1697.0001884606
4	2494451	142	1697.1597498404
4	2535514	143	1697.3205984198
4	2579579	144	1697.4802494599
4	2623812	145	1697.6117281048
4	2671201	146	1697.7383905202
4	2718764	147	1697.8674577195
4	2769597	148	1697.9955072729
4	2820570	149	1698.1234500231
4	2871543	150	1698.2507664058
4	2925900	151	1698.378924882
4	2980443	152	1698.5063188141
4	3038484	153	1698.6332336841
4	3096677	154	1698.7607225832
4	3158482	155	1698.8873332292
4	3220485	156	1699.0142623279
4	3286214	157	1699.1423740648
4	3352107	158	1699.2696894361
4	3421840	159	1699.3975221468
4	3491783	160	1699.5261275172
4	3561726	161	1699.6528133554
4	3635624	162	1699.7806949187
4	3709737	163	1699.9071927667
4	3783810	164	1700.0349641349
4	3861951	165	1700.1628797697
4	3940314	166	1700.2895631315
4	4018677	167	1700.4170346158
4	4097000	168	1700.5450672302
4	4175323	169	1700.6732671065
4	4253646	170	1700.8002881082
4	4336055	171	1700.9067441961
4	4421141	172	1700.9870283483
4	4506193	173	1701.0673125014
4	4593193	174	1701.1161188278
4	4675886	175	1701.0526422951
4	4758206	176	1700.9880005866
4	4840528	177	1700.8148563122
4	4923181	178	1700.3284845147
4	5005464	179	1699.8374929568
4	5087985	180	1698.8327787509
4	5170505	181	1697.7971750228
4	5252801	182	1696.4732052274
4	5335001	183	1695.1371045532
4	5417110	184	1693.7992076287
4	5499405	185	1692.4430086603
4	5581978	186	1691.0833717175
4	5664365	187	1689.7232961589
4	5746526	188	1688.3713207459
4	5829059	189	1687.013067469
4	5911099	190	1685.663890033
4	5992660	191	1684.3008727338
4	6073397	192	1682.938941
4	6153819	193	1681.580162555
4	6233970	194	1680.2293664897
4	6313785	195	1678.8597265538
4	6393782	196	1677.4972541481
4	6473699	197	1676.1420401707
4	6557265	198	1674.7769714249
4	6640829	199	1673.4205863643
4	6724345	200	1672.0636908803
3	452	3	2416.8733999323
3	933	4	2416.8733999323
3	1436	5	2415.6091245101
3	1939	6	2414.3297608945
3	2824	7	2413.0608086878
3	3737	8	2411.784071286
3	4650	9	2410.5084319564
3	5563	10	2409.2382968365
3	6477	11	2407.9741699421
3	7886	12	2406.9264332583
3	9939	13	2405.9705753099
3	12032	14	2405.0127915443
3	14125	15	2404.0620217433
3	16218	16	2403.1120463513
3	18311	17	2402.1530120872
3	21128	18	2401.195836457
3	23991	19	2400.249009397
3	26854	20	2399.2948450497
3	29717	21	2398.3462159754
3	32580	22	2397.4000799049
3	36689	23	2396.4478509233
3	40850	24	2395.4995078107
3	45367	25	2394.5470105201
3	49170	26	2393.5881657234
3	53175	27	2392.6385666089
3	57880	28	2391.6811003394
3	62643	29	2390.7322746279
3	67406	30	2389.7807841415
3	72169	31	2388.8279439007
3	77998	32	2387.8818115046
3	83891	33	2386.9338306915
3	89784	34	2385.9807682297
3	95677	35	2385.0248441817
3	101570	36	2384.0806117429
3	108643	37	2383.134864015
3	115786	38	2382.1851646596
3	122929	39	2381.2369177836
3	130072	40	2380.2903374197
3	137216	41	2379.3412074929
3	145653	42	2378.3889002138
3	154166	43	2377.4426818109
3	162679	44	2376.4944137797
3	171192	45	2375.5412286645
3	179665	46	2374.5853626007
3	189546	47	2373.6357392023
3	199509	48	2372.692667178
3	209472	49	2371.7490485441
3	219435	50	2370.7988860424
3	230921	51	2369.8452516927
3	242494	52	2368.8971139035
3	254067	53	2367.9384829677
3	265640	54	2366.9878984872
3	277213	55	2366.0373554967
3	288786	56	2365.0829230784
3	300359	57	2364.1326507836
3	311932	58	2363.1886280864
3	323505	59	2362.2424947449
3	335078	60	2361.2913599727
3	347434	61	2360.3364864716
3	359778	62	2359.382334115
3	372484	63	2358.4385471408
3	384057	64	2357.4792812344
3	395630	65	2356.5275926044
3	407203	66	2355.5743624067
3	418776	67	2354.6239173049
3	430349	68	2353.6817165394
3	441922	69	2352.7275992931
3	453335	70	2351.775989439
3	464668	71	2350.8228587795
3	475921	72	2349.8680061267
3	487094	73	2348.9185988631
3	498187	74	2347.9709955091
3	509280	75	2347.0126587533
3	520293	76	2346.0612238974
3	531226	77	2345.111196158
3	542079	78	2344.1616260377
3	552932	79	2343.2115505867
3	563785	80	2342.3603202367
3	574639	81	2341.5245982321
3	585492	82	2340.6931252765
3	596345	83	2339.8605317896
3	608834	84	2339.0309398472
3	621417	85	2338.2045774654
3	633960	86	2337.3751299453
3	648173	87	2336.5440631324
3	662326	88	2335.7101531302
3	678263	89	2335.2148286357
3	694226	90	2334.992126326
3	712091	91	2334.7711676578
3	730064	92	2334.5504467448
3	750053	93	2334.3280693226
3	770156	94	2334.1055071866
3	792389	95	2333.9498430337
3	814742	96	2333.8549312047
3	839339	97	2333.9544207564
3	864062	98	2334.1650831084
3	891143	99	2334.7365031659
3	918356	100	2335.4644253515
3	945529	101	2336.3808056843
3	975174	102	2337.4193699701
3	1004957	103	2338.4746018797
3	1037286	104	2339.5312062956
3	1069759	105	2340.5819331093
3	1102232	106	2341.6383991021
3	1137405	107	2342.6890803128
3	1172729	108	2343.7395942376
3	1208012	109	2344.7975313618
3	1246109	110	2345.8214575307
3	1284362	111	2346.8310612149
3	1322575	112	2347.8398125665
3	1360788	113	2348.851117554
3	1399001	114	2349.8541730711
3	1437174	115	2350.8524930392
3	1475347	116	2351.8687985034
3	1513520	117	2352.8802439113
3	1553855	118	2353.8822150197
3	1594190	119	2354.8908520404
3	1636043	120	2355.888052452
3	1675536	121	2356.8889651807
3	1716052	122	2357.8932116326
3	1755705	123	2358.9015078758
3	1795518	124	2359.9103698495
3	1835371	125	2360.9116064673
3	1875304	126	2362.1740438371
3	1914917	127	2363.5180652542
3	1954210	128	2364.861051789
3	1993063	129	2366.2013761741
3	2031676	130	2367.5443788206
3	2070129	131	2368.8875977445
3	2108422	132	2370.2283558866
3	2146475	133	2371.5686545292
3	2184488	134	2372.9112656947
3	2222501	135	2374.2551432062
3	2260514	136	2375.5913082672
3	2298527	137	2376.9274837014
3	2336541	138	2378.2613487688
3	2374514	139	2379.6111029878
3	2412487	140	2380.9574651055
3	2453388	141	2382.3106905476
3	2494451	142	2383.651291073
3	2535514	143	2385.002706368
3	2579579	144	2386.3440601925
3	2623812	145	2387.6915993053
3	2671201	146	2389.0311389116
3	2718764	147	2390.3961107156
3	2769597	148	2391.7503202428
3	2820570	149	2393.1034002438
3	2871543	150	2394.4498559926
3	2925900	151	2395.8052174486
3	2980443	152	2397.1524933291
3	3038484	153	2398.4947028187
3	3096677	154	2399.8429830446
3	3158482	155	2401.1819751611
3	3220485	156	2402.5243351222
3	3286214	157	2403.8792022761
3	3352107	158	2405.2256473277
3	3421840	159	2406.5775635929
3	3491783	160	2407.9376512495
3	3561726	161	2409.2774385734
3	3635624	162	2410.6298714865
3	3709737	163	2411.967670685
3	3783810	164	2413.3189382126
3	3861951	165	2414.6717314458
3	3940314	166	2416.0114925803
3	4018677	167	2417.3595886341
3	4097000	168	2418.7136190132
3	4175323	169	2420.0694183038
3	4253646	170	2421.4127501972
3	4336055	171	2422.784544007
3	4421141	172	2424.17098956
3	4506193	173	2425.5574351129
3	4593193	174	2426.9336963773
3	4675886	175	2428.2767261714
3	4758206	176	2429.6444086485
3	4840528	177	2430.9846971362
3	4923181	178	2432.2466347739
3	5005464	179	2433.5205588151
3	5087985	180	2434.3940558223
3	5170505	181	2435.2726173424
3	5252801	182	2435.5428152598
3	5335001	183	2435.8154888666
3	5417110	184	2435.8767619241
3	5499405	185	2435.8853261564
3	5581978	186	2435.8939120991
3	5664365	187	2435.9025008115
3	5746526	188	2435.9110383724
3	5829059	189	2435.9196155774
3	5911099	190	2435.9281354696
3	5992660	191	2435.9367427587
3	6073397	192	2435.9453431927
3	6153819	193	2435.953923714
3	6233970	194	2435.9624538275
3	6313785	195	2435.9711029378
3	6393782	196	2435.9797067861
3	6473699	197	2435.9882647983
3	6557265	198	2435.9968850421
3	6640829	199	2436.0054504494
3	6724345	200	2436.0140190801
24	12032	14	1.2182253288638
24	14125	15	1.1935882062483
24	16218	16	1.2048977821424
24	18311	17	1.1840808368978
24	21128	18	1.1722966599082
24	23991	19	1.1877172080819
24	26854	20	1.1698193410345
24	29717	21	1.1950638413795
24	32580	22	1.1684694389812
24	36689	23	1.1792521070094
24	40850	24	1.1819652947568
24	45367	25	1.1761575392496
24	49170	26	1.1594789190033
24	53175	27	1.1845436487743
24	57880	28	1.1670157991779
24	62643	29	1.1926922616043
24	67406	30	1.161902217399
24	72169	31	1.1690388821356
24	77998	32	1.1884259805697
24	83891	33	1.1669274593237
24	89784	34	1.1722635318026
24	95677	35	1.1876364589268
24	101570	36	1.1836087696394
24	108643	37	1.1640375148834
24	115786	38	1.1689772915668
24	122929	39	1.170593170766
24	130072	40	1.1809928277714
24	137216	41	1.1758913478406
24	145653	42	1.1703416672506
24	154166	43	1.1762059597647
24	162679	44	1.1941220781003
24	171192	45	1.1658479789748
24	179665	46	1.1668756913156
24	189546	47	1.1760293160307
24	199509	48	1.1935760518743
24	209472	49	1.1722810594343
24	219435	50	1.1725432177712
24	230921	51	1.1767781678412
24	242494	52	1.1821318305126
24	254067	53	1.1659078990949
24	265640	54	1.185572827955
24	277213	55	1.1581248339603
24	288786	56	1.1874281930833
24	300359	57	1.179693633298
24	311932	58	1.1704344955864
24	323505	59	1.1756608121431
24	335078	60	1.1871235616897
24	347434	61	1.1772751068348
24	359778	62	1.1645494133984
24	372484	63	1.1694694521409
24	384057	64	1.189431644625
24	395630	65	1.177548837493
24	407203	66	1.1591340809482
24	418776	67	1.1890666513585
24	430349	68	1.1791456755052
24	441922	69	1.1772277005511
24	453335	70	1.157330482404
24	464668	71	1.1724563487098
24	475921	72	1.1870569514877
24	487094	73	1.1832461444051
24	498187	74	1.1726171057466
24	509280	75	1.1772253719736
24	520293	76	1.1791590808063
24	531226	77	1.17661198717
24	542079	78	1.1573465923512
24	552932	79	1.1770177815506
24	563785	80	1.1930686248719
24	574639	81	1.1654633187355
24	585492	82	1.1712908804162
24	596345	83	1.169996919894
24	608834	84	1.1709786280335
24	621417	85	1.1771105794822
24	633960	86	1.182435948557
24	648173	87	1.1691974922675
24	662326	88	1.1786143973956
24	678263	89	1.1814826996466
24	694226	90	1.1621709434917
24	712091	91	1.1762253718609
24	730064	92	1.1733198459585
24	750053	93	1.1946398057475
24	770156	94	1.1714484692276
24	792389	95	1.1648202181845
24	814742	96	1.1798908849228
24	839339	97	1.1781642809475
24	864062	98	1.185762492649
24	891143	99	1.1572182095444
24	918356	100	1.191359514726
24	945529	101	1.1678420126077
24	975174	102	1.1881967966735
24	1004957	103	1.1707228300858
24	1037286	104	1.1692871747977
24	1069759	105	1.1767556442339
24	1102232	106	1.1671382726357
24	1137405	107	1.1750813098704
24	1172729	108	1.1946595242735
24	1208012	109	1.1726635324641
24	1246109	110	1.1656534868898
24	1284362	111	1.1800972765685
24	1322575	112	1.1746852895947
24	1360788	113	1.1709613039663
24	1399001	114	1.1853730466
24	1437174	115	1.1645173515314
24	1475347	116	1.1819591026357
24	1513520	117	1.1794018441945
24	1553855	118	1.1631380978951
24	1594190	119	1.1760898947805
24	1636043	120	1.1741433242818
24	1675536	121	1.1950590473111
24	1716052	122	1.1731605015792
24	1755705	123	1.1711548461205
24	1795518	124	1.1693037051598
24	1835371	125	1.1825485585671
24	1875304	126	1.1642326769821
24	1914917	127	1.1711299130068
24	1954210	128	1.1837745388328
24	1993063	129	1.1644299897016
24	2031676	130	1.1855234782544
24	2070129	131	1.1835345945372
24	2108422	132	1.1642901976345
24	2146475	133	1.176799453814
24	2184488	134	1.1844654211358
24	2222501	135	1.1610362876785
24	2260514	136	1.1827596609824
24	2298527	137	1.178299397646
24	2336541	138	1.1704532474681
24	2374514	139	1.1678226265602
24	2412487	140	1.1878062723978
24	2453388	141	1.1745669885468
24	2494451	142	1.1644262889848
24	2535514	143	1.1758658176491
24	2579579	144	1.1823959047488
24	2623812	145	1.1816840596397
24	2671201	146	1.1771572478139
24	2718764	147	1.1695924909178
24	2769597	148	1.1676996272784
24	2820570	149	1.1796960555168
24	2871543	150	1.1655122693474
24	2925900	151	1.1774717568592
24	2980443	152	1.1741615338051
24	3038484	153	1.1729352966304
24	3096677	154	1.1818024580339
24	3158482	155	1.1674488976
24	3220485	156	1.1730268978223
24	3286214	157	1.176994416444
24	3352107	158	1.1772725496489
24	3421840	159	1.1683175967801
24	3491783	160	1.1866800779373
24	3561726	161	1.1672081947416
24	3635624	162	1.1845866307354
24	3709737	163	1.1837453386286
24	3783810	164	1.1583636068704
24	3861951	165	1.1815639608754
24	3940314	166	1.1652901826816
24	4018677	167	1.1954704158389
24	4097000	168	1.1803965533213
24	4175323	169	1.1743114261174
24	4253646	170	1.1714322491065
24	4336055	171	1.1691169407975
24	4421141	172	1.1693214818152
24	4506193	173	1.1757217845382
24	4593193	174	1.1809753932126
24	4675886	175	1.1866675657761
24	4758206	176	1.1648432507547
24	4840528	177	1.1680109738814
24	4923181	178	1.1745188338137
24	5005464	179	1.1839144095063
24	5087985	180	1.169975118152
24	5170505	181	1.1936102344826
24	5252801	182	1.1772475
24	5335001	183	1.1772475
24	5417110	184	1.1531527720743
24	5499405	185	1.1932916528726
24	5581978	186	1.1622015588625
24	5664365	187	1.1833513121479
24	5746526	188	1.1688425846456
24	5829059	189	1.1699431678356
24	5911099	190	1.1979500784697
24	5992660	191	1.167422667645
24	6073397	192	1.1836567502166
24	6153819	193	1.1658853282857
24	6233970	194	1.1889580542236
24	6313785	195	1.1595158857561
24	6393782	196	1.1786037360183
24	6473699	197	1.1670201528912
24	6557265	198	1.1806053765676
24	6640829	199	1.1771423791221
24	6724345	200	1.1809589397589
23	12032	14	0.22667053236211
23	14125	15	0.10051684698248
23	16218	16	0.11108264136999
23	18311	17	0.035905735246178
23	21128	18	-0.0015153689206744
23	23991	19	0.040286493804778
23	26854	20	-0.013359793643695
23	29717	21	0.055057342260594
23	32580	22	-0.022078057146774
23	36689	23	0.0094238657894627
23	40850	24	0.01523701788988
23	45367	25	-0.0019260955840763
23	49170	26	-0.046812164617836
23	53175	27	0.026642506586487
23	57880	28	-0.023737763094816
23	62643	29	0.047205651628448
23	67406	30	-0.040441683700515
23	72169	31	-0.01614644583444
23	77998	32	0.037685936016108
23	83891	33	-0.024516049080477
23	89784	34	-0.006971031834837
23	95677	35	0.034722127376073
23	101570	36	0.019360024792453
23	108643	37	-0.034982381896245
23	115786	38	-0.017434591152576
23	122929	39	-0.010852944849628
23	130072	40	0.018643029729396
23	137216	41	0.00249012876405
23	145653	42	-0.012829651647087
23	154166	43	0.0047106920262903
23	162679	44	0.050732477991712
23	171192	45	-0.030106429848173
23	179665	46	-0.023830851673692
23	189546	47	0.00403422580098
23	199509	48	0.049222566594835
23	209472	49	-0.012763470375729
23	219435	50	-0.010504772653803
23	230921	51	0.0020747995019583
23	242494	52	0.015818321933556
23	254067	53	-0.029259169079726
23	265640	54	0.026597776240022
23	277213	55	-0.050469113256493
23	288786	56	0.034867526537863
23	300359	57	0.009793812172979
23	311932	58	-0.016021889178724
23	323505	59	-3.1574830143155e-05
23	335078	60	0.029909641815897
23	347434	61	0.00037999075698281
23	359778	62	-0.033606162565494
23	372484	63	-0.016282563801722
23	384057	64	0.038696955390506
23	395630	65	0.0024850315780072
23	407203	66	-0.047615371747977
23	418776	67	0.038719397141702
23	430349	68	0.0075047122178755
23	441922	69	0.0015017893585738
23	453335	70	-0.052683029759355
23	464668	71	-0.0046432711090729
23	475921	72	0.034946380926865
23	487094	73	0.020004202621446
23	498187	74	-0.010576825685954
23	509280	75	0.0029803151846863
23	520293	76	0.00766758304154
23	531226	77	-1.1811353033409e-05
23	542079	78	-0.05240254954616
23	552932	79	0.0079978713428352
23	563785	80	0.048811571293981
23	574639	81	-0.030386523286228
23	585492	82	-0.010925869179669
23	596345	83	-0.013087186476606
23	608834	84	-0.00874002521093
23	621417	85	0.0091144373414844
23	633960	86	0.022046858047999
23	648173	87	-0.016428496264009
23	662326	88	0.011125795524254
23	678263	89	0.017180244326085
23	694226	90	-0.037214788123189
23	712091	91	0.0059307535573478
23	730064	92	-0.0027311748191197
23	750053	93	0.053625556227612
23	770156	94	-0.014179859980983
23	792389	95	-0.030484295289964
23	814742	96	0.014071252623038
23	839339	97	0.0075821671665726
23	864062	98	0.026373112780445
23	891143	99	-0.053499530088933
23	918356	100	0.044729625094786
23	945529	101	-0.023240612097619
23	975174	102	0.033433040793743
23	1004957	103	-0.016693325514648
23	1037286	104	-0.018555798863541
23	1069759	105	0.0038254901204784
23	1102232	106	-0.022657555738179
23	1137405	107	0.0018320519367596
23	1172729	108	0.05271432726614
23	1208012	109	-0.011583919258555
23	1246109	110	-0.029092619811618
23	1284362	111	0.013345687562147
23	1322575	112	-0.0027843253556292
23	1360788	113	-0.012444925691554
23	1399001	114	0.027408064057464
23	1437174	115	-0.03180319012699
23	1475347	116	0.019118023515653
23	1513520	117	0.009773051311236
23	1553855	118	-0.035282679131746
23	1594190	119	0.0043903263900169
23	1636043	120	-0.0014385389254634
23	1675536	121	0.053363162924254
23	1716052	122	-0.010630009909629
23	1755705	123	-0.014672884387628
23	1795518	124	-0.017888868742556
23	1835371	125	0.019720419530605
23	1875304	126	-0.031982366522748
23	1914917	127	-0.0091772084124386
23	1954210	128	0.025986443538891
23	1993063	129	-0.029699525976967
23	2031676	130	0.031118819218439
23	2070129	131	0.021455689857248
23	2108422	132	-0.032692677664777
23	2146475	133	0.0052422028481183
23	2184488	134	0.024721674611404
23	2222501	135	-0.041398798995134
23	2260514	136	0.022635334979795
23	2298527	137	0.0077323130487152
23	2336541	138	-0.014258797487451
23	2374514	139	-0.019703578743954
23	2412487	140	0.036349657570503
23	2453388	141	-0.0035041093037256
23	2494451	142	-0.030629898634895
23	2535514	143	0.0044522413938668
23	2579579	144	0.021240295754978
23	2623812	145	0.016403864089322
23	2671201	146	0.0023333760812723
23	2718764	147	-0.018123566939418
23	2769597	148	-0.021103144633041
23	2820570	149	0.013995607684289
23	2871543	150	-0.026293163294516
23	2925900	151	0.0097447005423925
23	2980443	152	-0.00050962349632755
23	3038484	153	-0.0037747501725487
23	3096677	154	0.020537945593888
23	3158482	155	-0.020903827858597
23	3220485	156	-0.0029843291849829
23	3286214	157	0.0081701171681441
23	3352107	158	0.0078053206541677
23	3421840	159	-0.017547929100046
23	3491783	160	0.034066435376493
23	3561726	161	-0.022595113146559
23	3635624	162	0.026920433172361
23	3709737	163	0.020914589614323
23	3783810	164	-0.049915391460268
23	3861951	165	0.019274914520793
23	3940314	166	-0.027250327418895
23	4018677	167	0.056451168606549
23	4097000	168	0.0095899314490251
23	4175323	169	-0.0075459284158166
23	4253646	170	-0.014258989152343
23	4336055	171	-0.018770663446048
23	4421141	172	-0.015936766899863
23	4506193	173	0.0034762222720826
23	4593193	174	0.01701430019845
23	4675886	175	0.029440408591957
23	4758206	176	-0.032165319603842
23	4840528	177	-0.019749750887665
23	4923181	178	0.00049102601931539
23	5005464	179	0.025452146348673
23	5087985	180	-0.015138886859252
23	5170505	181	0.04888451795624
23	5252801	182	0
23	5335001	183	0
23	5417110	184	-0.065532005472859
23	5499405	185	0.050644671492692
23	5581978	186	-0.03864290170087
23	5664365	187	0.023165507542823
23	5746526	188	-0.0186306351356
23	5829059	189	-0.013341733348271
23	5911099	190	0.061927899013325
23	5992660	191	-0.025999199974144
23	6073397	192	0.020150581484712
23	6153819	193	-0.029495924083878
23	6233970	194	0.035098009248031
23	6313785	195	-0.047598997852118
23	6393782	196	0.0099110779410694
23	6473699	197	-0.022664593998343
23	6557265	198	0.016983147684692
23	6640829	199	0.0054559308369386
23	6724345	200	0.014803792340293
22	9939	13	0.82437053541553
22	12032	14	1.0510410677776
22	14125	15	1.1515579147601
22	16218	16	1.2626405561301
22	18311	17	1.2985462913763
22	21128	18	1.2970309224556
22	23991	19	1.3373174162604
22	26854	20	1.3239576226167
22	29717	21	1.3790149648773
22	32580	22	1.3569369077305
22	36689	23	1.36636077352
22	40850	24	1.3815977914099
22	45367	25	1.3796716958258
22	49170	26	1.3328595312079
22	53175	27	1.3595020377944
22	57880	28	1.3357642746996
22	62643	29	1.3829699263281
22	67406	30	1.3425282426275
22	72169	31	1.3263817967931
22	77998	32	1.3640677328092
22	83891	33	1.3395516837287
22	89784	34	1.3325806518939
22	95677	35	1.36730277927
22	101570	36	1.3866628040624
22	108643	37	1.3516804221662
22	115786	38	1.3342458310136
22	122929	39	1.323392886164
22	130072	40	1.3420359158934
22	137216	41	1.3445260446574
22	145653	42	1.3316963930103
22	154166	43	1.3364070850366
22	162679	44	1.3871395630283
22	171192	45	1.3570331331802
22	179665	46	1.3332022815065
22	189546	47	1.3372365073075
22	199509	48	1.3864590739023
22	209472	49	1.3736956035266
22	219435	50	1.3631908308728
22	230921	51	1.3652656303747
22	242494	52	1.3810839523083
22	254067	53	1.3518247832285
22	265640	54	1.3784225594686
22	277213	55	1.3279534462121
22	288786	56	1.3628209727499
22	300359	57	1.3726147849229
22	311932	58	1.3565928957442
22	323505	59	1.356561320914
22	335078	60	1.3864709627299
22	347434	61	1.3868509534869
22	359778	62	1.3532447909214
22	372484	63	1.3369622271197
22	384057	64	1.3756591825102
22	395630	65	1.3781442140882
22	407203	66	1.3305288423402
22	418776	67	1.369248239482
22	430349	68	1.3767529516998
22	441922	69	1.3782547410584
22	453335	70	1.325571711299
22	464668	71	1.32092844019
22	475921	72	1.3558748211168
22	487094	73	1.3758790237383
22	498187	74	1.3653021980523
22	509280	75	1.368282513237
22	520293	76	1.3759500962786
22	531226	77	1.3759382849255
22	542079	78	1.3235357353794
22	552932	79	1.3315336067222
22	563785	80	1.3803451780162
22	574639	81	1.3499586547299
22	585492	82	1.3390327855503
22	596345	83	1.3259455990737
22	608834	84	1.3172055738627
22	621417	85	1.3263200112042
22	633960	86	1.3483668692522
22	648173	87	1.3319383729882
22	662326	88	1.3430641685125
22	678263	89	1.3602444128386
22	694226	90	1.3230296247154
22	712091	91	1.3289603782727
22	730064	92	1.3262292034536
22	750053	93	1.3798547596812
22	770156	94	1.3656748997002
22	792389	95	1.3351906044103
22	814742	96	1.3492618570333
22	839339	97	1.3568440241999
22	864062	98	1.3832171369803
22	891143	99	1.3297176068914
22	918356	100	1.3744472319862
22	945529	101	1.3512066198886
22	975174	102	1.3846396606823
22	1004957	103	1.3679463351676
22	1037286	104	1.3493905363041
22	1069759	105	1.3532160264246
22	1102232	106	1.3305584706864
22	1137405	107	1.3323905226232
22	1172729	108	1.3851048498893
22	1208012	109	1.3735209306307
22	1246109	110	1.3444283108191
22	1284362	111	1.3577739983813
22	1322575	112	1.3549896730256
22	1360788	113	1.3425447473341
22	1399001	114	1.3699528113916
22	1437174	115	1.3381496212646
22	1475347	116	1.3572676447802
22	1513520	117	1.3670406960915
22	1553855	118	1.3317580169597
22	1594190	119	1.3361483433497
22	1636043	120	1.3347098044243
22	1675536	121	1.3880729673485
22	1716052	122	1.3774429574389
22	1755705	123	1.3627700730513
22	1795518	124	1.3448812043087
22	1835371	125	1.3646016238393
22	1875304	126	1.3326192573166
22	1914917	127	1.3234420489041
22	1954210	128	1.349428492443
22	1993063	129	1.319728966466
22	2031676	130	1.3508477856845
22	2070129	131	1.3723034755417
22	2108422	132	1.339610797877
22	2146475	133	1.3448530007251
22	2184488	134	1.3695746753365
22	2222501	135	1.3281758763413
22	2260514	136	1.3508112113211
22	2298527	137	1.3585435243699
22	2336541	138	1.3442847268824
22	2374514	139	1.3245811481385
22	2412487	140	1.360930805709
22	2453388	141	1.3574266964052
22	2494451	142	1.3267967977703
22	2535514	143	1.3312490391642
22	2579579	144	1.3524893349192
22	2623812	145	1.3688931990085
22	2671201	146	1.3712265750898
22	2718764	147	1.3531030081504
22	2769597	148	1.3319998635173
22	2820570	149	1.3459954712016
22	2871543	150	1.3197023079071
22	2925900	151	1.3294470084495
22	2980443	152	1.3289373849532
22	3038484	153	1.3251626347806
22	3096677	154	1.3457005803745
22	3158482	155	1.3247967525159
22	3220485	156	1.3218124233309
22	3286214	157	1.3299825404991
22	3352107	158	1.3377878611532
22	3421840	159	1.3202399320532
22	3491783	160	1.3543063674297
22	3561726	161	1.3317112542831
22	3635624	162	1.3586316874555
22	3709737	163	1.3795462770698
22	3783810	164	1.3296308856095
22	3861951	165	1.3489058001303
22	3940314	166	1.3216554727114
22	4018677	167	1.378106641318
22	4097000	168	1.387696572767
22	4175323	169	1.3801506443512
22	4253646	170	1.3658916551988
22	4336055	171	1.3471209917528
22	4421141	172	1.3311842248529
22	4506193	173	1.334660447125
22	4593193	174	1.3516747473235
22	4675886	175	1.3811151559154
22	4758206	176	1.3489498363116
22	4840528	177	1.3292000854239
22	4923181	178	1.3296911114432
22	5005464	179	1.3551432577919
22	5087985	180	1.3400043709326
22	5170505	181	1.3888888888889
22	5252801	182	1.3888888888889
22	5335001	183	1.3888888888889
22	5417110	184	1.323356883416
22	5499405	185	1.3740015549087
22	5581978	186	1.3353586532079
22	5664365	187	1.3585241607507
22	5746526	188	1.3398935256151
22	5829059	189	1.3265517922668
22	5911099	190	1.3884796912801
22	5992660	191	1.362480491306
22	6073397	192	1.3826310727907
22	6153819	193	1.3531351487068
22	6233970	194	1.3882331579549
22	6313785	195	1.3406341601027
22	6393782	196	1.3505452380438
22	6473699	197	1.3278806440455
22	6557265	198	1.3448637917302
22	6640829	199	1.3503197225671
22	6724345	200	1.3651235149074
18	7886	12	1577.3507489096
18	9939	13	1577.3507489096
18	12032	14	1577.5702857627
18	14125	15	1577.8974616835
18	16218	16	1578.2800677251
18	18311	17	1578.7028031023
18	21128	18	1579.1446596244
18	23991	19	1579.5944858035
18	26854	20	1580.0527690565
18	29717	21	1580.5188532909
18	32580	22	1580.9821578367
18	36689	23	1581.7917987183
18	40850	24	1582.7503806176
18	45367	25	1583.7137377551
18	49170	26	1584.6810508072
18	53175	27	1585.6383885564
18	57880	28	1586.6009120326
18	62643	29	1587.5531259868
18	67406	30	1588.5227645673
18	72169	31	1589.4852777505
18	77998	32	1590.4440695625
18	83891	33	1591.4024167508
18	89784	34	1592.3619490601
18	95677	35	1593.3217050442
18	101570	36	1594.2934139948
18	108643	37	1595.2607861226
18	115786	38	1596.2278564796
18	122929	39	1597.195869864
18	130072	40	1598.1551214317
18	137216	41	1599.1161017008
18	145653	42	1600.0828351527
18	154166	43	1601.0306907771
18	162679	44	1601.9872785611
18	171192	45	1602.9534183918
18	179665	46	1603.9176033083
18	189546	47	1604.8804195747
18	199509	48	1605.8385887993
18	209472	49	1606.8035198301
18	219435	50	1607.7649472356
18	230921	51	1608.7305536317
18	242494	52	1609.689883776
18	254067	53	1610.6490366505
18	265640	54	1611.615618526
18	277213	55	1612.5808831798
18	288786	56	1613.5478197103
18	300359	57	1614.5097840745
18	311932	58	1615.4727068376
18	323505	59	1616.4327689521
18	335078	60	1617.3982741646
18	347434	61	1618.3602851396
18	359778	62	1619.3188137179
18	372484	63	1620.2796914363
18	384057	64	1621.2441341663
18	395630	65	1622.2092736987
18	407203	66	1623.170977246
18	418776	67	1624.133178548
18	430349	68	1625.0918568661
18	441922	69	1626.0560802966
18	453335	70	1627.0221195295
18	464668	71	1627.9848474534
18	475921	72	1628.9384623105
18	487094	73	1629.8988242382
18	498187	74	1630.8645863123
18	509280	75	1631.8256375901
18	520293	76	1632.7886713576
18	531226	77	1633.7536590761
18	542079	78	1634.7207665332
18	552932	79	1635.688635977
18	563785	80	1636.6575966775
18	574639	81	1637.6225441387
18	585492	82	1638.5903078048
18	596345	83	1639.5562515045
18	608834	84	1640.522940699
18	621417	85	1641.4796199957
18	633960	86	1642.4431435047
18	648173	87	1643.4049013117
18	662326	88	1644.3644255549
18	678263	89	1645.3236866323
18	694226	90	1646.2811176414
18	712091	91	1647.3298863545
18	730064	92	1648.3915880835
18	750053	93	1649.4616703195
18	770156	94	1650.5385536635
18	792389	95	1651.609515761
18	814742	96	1652.6770016942
18	839339	97	1653.7447019499
18	864062	98	1654.8097992819
18	891143	99	1655.8760286905
18	918356	100	1657.0745901912
18	945529	101	1658.4119163686
18	975174	102	1659.7461218601
18	1004957	103	1661.0819734242
18	1037286	104	1662.4245466208
18	1069759	105	1663.7559748385
18	1102232	106	1665.0921085654
18	1137405	107	1666.4431461487
18	1172729	108	1667.7789226472
18	1208012	109	1669.118017029
18	1246109	110	1670.3542286418
18	1284362	111	1671.4865244329
18	1322575	112	1672.4772040797
18	1360788	113	1673.3483590716
18	1399001	114	1674.1946815997
18	1437174	115	1675.0497176824
18	1475347	116	1675.9038558742
18	1513520	117	1676.7506850697
18	1553855	118	1677.6027998356
18	1594190	119	1678.4508455526
18	1636043	120	1679.296028723
18	1675536	121	1680.1827873057
18	1716052	122	1681.0909766536
18	1755705	123	1681.9932096601
18	1795518	124	1682.9038733244
18	1835371	125	1683.802406013
18	1875304	126	1684.7026587836
18	1914917	127	1685.6089193737
18	1954210	128	1686.5105699925
18	1993063	129	1687.4095231537
18	2031676	130	1688.3149890983
18	2070129	131	1689.2204685081
18	2108422	132	1690.1324480399
18	2146475	133	1691.0387403583
18	2184488	134	1691.9472174468
18	2222501	135	1692.8536022641
18	2260514	136	1693.7584734308
18	2298527	137	1694.1371846581
18	2336541	138	1694.3370824773
18	2374514	139	1694.5372680267
18	2412487	140	1694.7387383264
18	2453388	141	1694.9392669611
18	2494451	142	1695.1382864555
18	2535514	143	1695.3361729737
18	2579579	144	1695.5367980702
18	2623812	145	1695.7372679813
18	2671201	146	1695.9375676559
18	2718764	147	1696.1387187997
18	2769597	148	1696.3387070224
18	2820570	149	1696.507684337
18	2871543	150	1696.6673776386
18	2925900	151	1696.8275233544
18	2980443	152	1696.9879091224
18	3038484	153	1697.1485473532
18	3096677	154	1697.3080311026
18	3158482	155	1697.467021171
18	3220485	156	1697.6018407512
18	3286214	157	1697.7296347935
18	3352107	158	1697.8579629017
18	3421840	159	1697.9850861374
18	3491783	160	1698.1134663122
18	3561726	161	1698.2405631747
18	3635624	162	1698.3677553432
18	3709737	163	1698.4954811847
18	3783810	164	1698.6231650403
18	3861951	165	1698.7517135162
18	3940314	166	1698.8794996953
18	4018677	167	1699.0060815755
18	4097000	168	1699.1346400129
18	4175323	169	1699.26270473
18	4253646	170	1699.3912659464
18	4336055	171	1699.5182738593
18	4421141	172	1699.6464505047
18	4506193	173	1699.7738809362
18	4593193	174	1699.9006359531
18	4675886	175	1700.0271650953
18	4758206	176	1700.1547422428
18	4840528	177	1700.2821552996
18	4923181	178	1700.4094950547
18	5005464	179	1700.5366814798
18	5087985	180	1700.664311477
18	5170505	181	1700.7909234092
18	5252801	182	1700.9005277045
18	5335001	183	1700.9808118567
18	5417110	184	1701.0610960089
18	5499405	185	1701.1210140018
18	5581978	186	1701.0565172294
18	5664365	187	1700.9925037595
18	5746526	188	1700.8530606804
18	5829059	189	1700.3673699452
18	5911099	190	1699.8815605836
18	5992660	191	1698.9165485464
18	6073397	192	1697.8841284122
18	6153819	193	1696.581256819
18	6233970	194	1695.255519066
18	6313785	195	1693.9044068456
18	6393782	196	1692.5612719338
18	6473699	197	1691.198991945
18	6557265	198	1689.8436983088
18	6640829	199	1688.4912752109
18	6724345	200	1687.1446333257
17	7886	12	2417.8722244181
17	9939	13	2417.8722244181
17	12032	14	2417.2743486735
17	14125	15	2416.3833340445
17	16218	16	2415.3413637844
17	18311	17	2414.1901072875
17	21128	18	2412.9867772157
17	23991	19	2411.7617429782
17	26854	20	2410.5136771622
17	29717	21	2409.2443665464
17	32580	22	2407.982625992
17	36689	23	2406.9266053968
17	40850	24	2405.9801964308
17	45367	25	2405.0290728684
17	49170	26	2404.0740436263
17	53175	27	2403.1288630115
17	57880	28	2402.1785625233
17	62643	29	2401.2384406377
17	67406	30	2400.2811153986
17	72169	31	2399.3308250725
17	77998	32	2398.3842088612
17	83891	33	2397.4380316263
17	89784	34	2396.4906843196
17	95677	35	2395.5431161794
17	101570	36	2394.5837468621
17	108643	37	2393.6286592946
17	115786	38	2392.6738696665
17	122929	39	2391.7181489851
17	130072	40	2390.7710788563
17	137216	41	2389.8223019775
17	145653	42	2388.8678449757
17	154166	43	2387.9320260738
17	162679	44	2386.9875859002
17	171192	45	2386.0337149813
17	179665	46	2385.0817741512
17	189546	47	2384.1311845904
17	199509	48	2383.1851830593
17	209472	49	2382.2325055898
17	219435	50	2381.2832872532
17	230921	51	2380.3299429951
17	242494	52	2379.3827952867
17	254067	53	2378.4358225974
17	265640	54	2377.4815152469
17	277213	55	2376.5285083911
17	288786	56	2375.5738508886
17	300359	57	2374.6241024128
17	311932	58	2373.6734077078
17	323505	59	2372.7255373249
17	335078	60	2371.7722929644
17	347434	61	2370.8224984689
17	359778	62	2369.8761421476
17	372484	63	2368.9274665185
17	384057	64	2367.9752711486
17	395630	65	2367.0223878245
17	407203	66	2366.072896853
17	418776	67	2365.1229144481
17	430349	68	2364.1764102882
17	441922	69	2363.2244314332
17	453335	70	2362.2706598341
17	464668	71	2361.3201574946
17	475921	72	2360.3786524954
17	487094	73	2359.4304861063
17	498187	74	2358.4769881467
17	509280	75	2357.5281411612
17	520293	76	2356.5773368625
17	531226	77	2355.6246034247
17	542079	78	2354.6697771666
17	552932	79	2353.7141985989
17	563785	80	2352.7575426321
17	574639	81	2351.8048489406
17	585492	82	2350.8493748071
17	596345	83	2349.8956975276
17	608834	84	2348.941284221
17	621417	85	2347.996753698
17	633960	86	2347.0454658759
17	648173	87	2346.0959213333
17	662326	88	2345.1485819918
17	678263	89	2344.2015024733
17	694226	90	2343.2562297831
17	712091	91	2342.3939185622
17	730064	92	2341.5645649324
17	750053	93	2340.7286648264
17	770156	94	2339.8874520018
17	792389	95	2339.0508645881
17	814742	96	2338.2169925976
17	839339	97	2337.382953188
17	864062	98	2336.5509470662
17	891143	99	2335.7180566159
17	918356	100	2335.2213443797
17	945529	101	2334.9992852624
17	975174	102	2334.7777443258
17	1004957	103	2334.5559300635
17	1037286	104	2334.3329996937
17	1069759	105	2334.1119199153
17	1102232	106	2333.9532629249
17	1137405	107	2333.857895566
17	1172729	108	2333.9459562732
17	1208012	109	2334.1570747569
17	1246109	110	2334.7217244949
17	1284362	111	2335.4467726874
17	1322575	112	2336.3666895021
17	1360788	113	2337.4043084675
17	1399001	114	2338.4523078528
17	1437174	115	2339.5110972147
17	1475347	116	2340.5687747202
17	1513520	117	2341.6174015121
17	1553855	118	2342.6725734134
17	1594190	119	2343.7227066206
17	1636043	120	2344.7692951423
17	1675536	121	2345.7996992527
17	1716052	122	2346.8067563869
17	1755705	123	2347.8072087574
17	1795518	124	2348.817009569
17	1835371	125	2349.8133587964
17	1875304	126	2350.8116153578
17	1914917	127	2351.8165337646
17	1954210	128	2352.8163403474
17	1993063	129	2353.8131558207
17	2031676	130	2354.8171930759
17	2070129	131	2355.8212452614
17	2108422	132	2356.8325051884
17	2146475	133	2357.8374587783
17	2184488	134	2358.8448349774
17	2222501	135	2359.8498911361
17	2260514	136	2360.8532688639
17	2298527	137	2362.0947207852
17	2336541	138	2363.4321124707
17	2374514	139	2364.7714291835
17	2412487	140	2366.1193413557
17	2453388	141	2367.4609534326
17	2494451	142	2368.7924687944
17	2535514	143	2370.11640412
17	2579579	144	2371.458661564
17	2623812	145	2372.7998807637
17	2671201	146	2374.1399610136
17	2718764	147	2375.4857379087
17	2769597	148	2376.82373443
17	2820570	149	2378.1727764432
17	2871543	150	2379.5144853407
17	2925900	151	2380.8599953235
17	2980443	152	2382.2075221813
17	3038484	153	2383.5571701741
17	3096677	154	2384.8971184576
17	3158482	155	2386.2329189427
17	3220485	156	2387.587033935
17	3286214	157	2388.9385412598
17	3352107	158	2390.2956966814
17	3421840	159	2391.640109773
17	3491783	160	2392.9978158402
17	3561726	161	2394.3419500169
17	3635624	162	2395.6870921173
17	3709737	163	2397.0378781673
17	3783810	164	2398.3882201834
17	3861951	165	2399.7477061427
17	3940314	166	2401.0991303032
17	4018677	167	2402.4378182071
17	4097000	168	2403.7974095127
17	4175323	169	2405.151779399
17	4253646	170	2406.511400097
17	4336055	171	2407.854593571
17	4421141	172	2409.2101471761
17	4506193	173	2410.5578090668
17	4593193	174	2411.898328001
17	4675886	175	2413.2364581623
17	4758206	176	2414.5856716705
17	4840528	177	2415.9331498136
17	4923181	178	2417.2798527463
17	5005464	179	2418.6249341086
17	5087985	180	2419.9747065413
17	5170505	181	2421.313712256
17	5252801	182	2422.6771899787
17	5335001	183	2424.0636355316
17	5417110	184	2425.4500810845
17	5499405	185	2426.8301247973
17	5581978	186	2428.1947407222
17	5664365	187	2429.5491309959
17	5746526	188	2430.8855722898
17	5829059	189	2432.1457428454
17	5911099	190	2433.4062211885
17	5992660	191	2434.3223123841
17	6073397	192	2435.2065137858
17	6153819	193	2435.5207639146
17	6233970	194	2435.7913226397
17	6313785	195	2435.8760976038
17	6393782	196	2435.8845793381
17	6473699	197	2435.8931819713
17	6557265	198	2435.9017404865
17	6640829	199	2435.9102808746
17	6724345	200	2435.9187847549
6	452	3	4.1695546184085
6	933	4	4.8304427410518
6	1436	5	6.0777192532467
6	1939	6	7.4439910681832
6	2824	7	8.3528641489679
6	3737	8	2.9302852404392
6	4650	9	1.8608925099174
6	5563	10	1.9942265821232
6	6477	11	0.973
6	7886	12	0.973
6	9939	13	0.973
6	12032	14	0.973
6	14125	15	0.973
6	16218	16	0.973
6	18311	17	0.973
6	21128	18	0.973
6	23991	19	0.973
6	26854	20	0.973
6	29717	21	0.973
6	32580	22	0.973
6	36689	23	0.973
6	40850	24	0.973
6	45367	25	0.973
6	49170	26	0.973
6	53175	27	0.973
6	57880	28	0.973
6	62643	29	0.973
6	67406	30	0.973
6	72169	31	0.973
6	77998	32	0.973
6	83891	33	0.973
6	89784	34	0.973
6	95677	35	0.973
6	101570	36	0.973
6	108643	37	0.973
6	115786	38	0.973
6	122929	39	0.973
6	130072	40	0.973
6	137216	41	2.545329698065
6	145653	42	3.4457477469991
6	154166	43	4.3800080072216
6	162679	44	4.87125033336
6	171192	45	6.1775166336307
6	179665	46	7.2930350680445
6	189546	47	8.544674221522
6	199509	48	2.3276568301543
6	209472	49	2.0710277907514
6	219435	50	0.973
6	230921	51	0.973
6	242494	52	0.973
6	254067	53	0.973
6	265640	54	4.2449731266916
6	277213	55	4.9290350831268
6	288786	56	6.9711657705851
6	300359	57	6.9280922087184
6	311932	58	7.3646586366114
6	323505	59	4.2107408676415
6	335078	60	2.0493488960536
6	347434	61	2.0506669767476
6	359778	62	1.7697044793006
6	372484	63	1.8740332639622
6	384057	64	2.0882374202118
6	395630	65	2.3583516829634
6	407203	66	1.6910984230697
6	418776	67	2.2690184392196
6	430349	68	1.8867202259085
6	441922	69	2.1407087525418
6	453335	70	1.9451445901371
6	464668	71	2.2320807887813
6	475921	72	1.7658967230716
6	487094	73	1.9853034319846
6	498187	74	1.9718750092394
6	509280	75	2.0464873727656
6	520293	76	2.3665990249525
6	531226	77	1.8660814099134
6	542079	78	1.9337417514339
6	552932	79	2.0317855467718
6	563785	80	2.2842647817495
6	574639	81	1.726464895081
6	585492	82	2.4074916501482
6	596345	83	1.917549138746
6	608834	84	1.9861876163265
6	621417	85	1.837829238423
6	633960	86	2.2736891420819
6	648173	87	2.0512136520367
6	662326	88	1.879104608496
6	678263	89	2.0139218774864
6	694226	90	2.2031995204389
6	712091	91	1.8788277931089
6	730064	92	2.1947483579149
6	750053	93	1.9992357175606
6	770156	94	1.9370250381262
6	792389	95	1.9564146218179
6	814742	96	2.1388123189868
6	839339	97	2.1845989320357
6	864062	98	1.8554132552171
6	891143	99	2.128964923448
6	918356	100	2.0381763974742
6	945529	101	2.0988967794726
6	975174	102	1.7314242846583
6	1004957	103	2.1184393038295
6	1037286	104	1.9990332226498
6	1069759	105	0.973
6	1102232	106	0.973
6	1137405	107	0.973
6	1172729	108	0.973
6	1208012	109	5.1144198190963
6	1246109	110	5.7954388186215
6	1284362	111	6.9560747511326
6	1322575	112	8.3582822542752
6	1360788	113	7.0035000608702
6	1399001	114	1.95394229857
6	1437174	115	1.9353911469937
6	1475347	116	2.1018639090637
6	1513520	117	2.0924571101324
6	1553855	118	1.8794868689399
6	1594190	119	2.0937184008035
6	1636043	120	2.0745533774944
6	1675536	121	2.1158319038745
6	1716052	122	1.7938845572577
6	1755705	123	2.1993897569717
6	1795518	124	2.1054022621163
6	1835371	125	1.8393425660922
6	1875304	126	2.1924837342251
6	1914917	127	1.8419794612742
6	1954210	128	2.3221063489042
6	1993063	129	1.7662972915289
6	2031676	130	2.1268435240047
6	2070129	131	2.2230703994927
6	2108422	132	1.9498638601209
6	2146475	133	1.9407345137929
6	2184488	134	2.1344639306322
6	2222501	135	1.9050836993654
6	2260514	136	2.2685460392685
6	2298527	137	1.7410110212912
6	2336541	138	1.9935872973009
6	2374514	139	2.2746192604757
6	2412487	140	1.8335020051979
6	2453388	141	2.1468797138364
6	2494451	142	2.054712376996
6	2535514	143	1.8569060891552
6	2579579	144	2.1770772126083
6	2623812	145	2.1933849141043
6	2671201	146	2.044301409061
6	2718764	147	2.0103258984298
6	2769597	148	1.8847459157373
6	2820570	149	2.2282509867408
6	2871543	150	1.6804488272716
6	2925900	151	2.2941059382854
6	2980443	152	2.1260423961965
6	3038484	153	1.9876867671546
6	3096677	154	1.6629881898677
6	3158482	155	2.3276459837254
6	3220485	156	1.966835642499
6	3286214	157	2.1976142777507
6	3352107	158	1.9217179924892
6	3421840	159	1.8639605869873
6	3491783	160	2.1703674995619
6	3561726	161	1.8177178205062
6	3635624	162	2.4165976313729
6	3709737	163	1.9582550935587
6	3783810	164	2.0778182511657
6	3861951	165	1.6473797192825
6	3940314	166	2.4402933637172
6	4018677	167	1.9165061603635
6	4097000	168	1.790472962898
6	4175323	169	2.4167076344148
6	4253646	170	1.8865423809041
6	4336055	171	2.1192806022858
6	4421141	172	2.100163727708
6	4506193	173	1.7621776837462
6	4593193	174	2.0996622039707
6	4675886	175	2.0513438902294
6	4758206	176	2.1605696208961
6	4840528	177	2.043927747085
6	4923181	178	1.9030631718378
6	5005464	179	2.0784190837736
6	5087985	180	1.874462567513
6	5170505	181	1.9018103010782
6	5252801	182	2.4635608389039
6	5335001	183	1.874193497632
6	5417110	184	2.109646172047
6	5499405	185	1.7010068380242
6	5581978	186	2.1983704796038
6	5664365	187	1.9861846545129
6	5746526	188	2.0470136268452
6	5829059	189	2.249872959906
6	5911099	190	1.8930035062782
6	5992660	191	1.8307601088626
6	6073397	192	2.2693523096597
6	6153819	193	2.1375327457907
6	6233970	194	1.7628643799689
6	6313785	195	2.0019272356694
6	6393782	196	2.2750389015584
6	6473699	197	1.756349405592
6	6557265	198	2.1142114919294
6	6640829	199	2.100332468781
6	6724345	200	1.8523384973872
5	452	3	1.9394587396434
5	933	4	1.7864777367469
5	1436	5	1.9126589795831
5	1939	6	2.0123010795959
5	2824	7	1.9465992386965
5	3737	8	0.27277913898843
5	4650	9	-0.0468640361703
5	5563	10	-0.0065218801260922
5	6477	11	-4.5
5	7886	12	-4.5
5	9939	13	-4.5
5	12032	14	-0.27409792399267
5	14125	15	0
5	16218	16	0
5	18311	17	0
5	21128	18	0
5	23991	19	0
5	26854	20	0
5	29717	21	0
5	32580	22	0
5	36689	23	0
5	40850	24	0
5	45367	25	0
5	49170	26	0
5	53175	27	0
5	57880	28	0
5	62643	29	0
5	67406	30	0
5	72169	31	0
5	77998	32	0
5	83891	33	0
5	89784	34	0
5	95677	35	0
5	101570	36	0
5	108643	37	0
5	115786	38	0
5	122929	39	0
5	130072	40	0
5	137216	41	2.341396342422
5	145653	42	2.0165265199612
5	154166	43	1.9393098876928
5	162679	44	1.7214883034211
5	171192	45	1.8853130263113
5	179665	46	1.9166796486545
5	189546	47	1.9647933526345
5	199509	48	0.090160735608078
5	209472	49	0.01301074081799
5	219435	50	-1.7040954062175
5	230921	51	-3.151759523859
5	242494	52	-2.9426747500391
5	254067	53	-2.3653415230108
5	265640	54	2.0425635563314
5	277213	55	1.8561928480421
5	288786	56	2.2306190424855
5	300359	57	1.8162308466132
5	311932	58	1.6761023079511
5	323505	59	0.64440818409887
5	335078	60	0.0032896080962388
5	347434	61	0.00357095887186
5	359778	62	-0.077789749819786
5	372484	63	-0.045460079023613
5	384057	64	0.018029169242363
5	395630	65	0.0951526066917
5	407203	66	-0.10046384377638
5	418776	67	0.069738410681021
5	430349	68	-0.042751635161695
5	441922	69	0.031945290437434
5	453335	70	-0.025512573525775
5	464668	71	0.058007127013989
5	475921	72	-0.078436341448686
5	487094	73	-0.012570588157978
5	498187	74	-0.016112200675998
5	509280	75	0.0060208972031237
5	520293	76	0.098050986328163
5	531226	77	-0.049232985670677
5	542079	78	-0.028272726030556
5	552932	79	0.00096937500638994
5	563785	80	0.073706790539436
5	574639	81	-0.089795166105032
5	585492	82	0.10954482438276
5	596345	83	-0.034774455639999
5	608834	84	-0.013959498091134
5	621417	85	-0.056620637550951
5	633960	86	0.071081300657243
[...]
20	1208012	109	0.018079638408727
20	1246109	110	-0.028762279810112
20	1284362	111	-0.0025967678853154
20	1322575	112	0.0094296418228068
20	1360788	113	0.052334363040673
20	1399001	114	-0.057763370147182
20	1437174	115	0.0034544697012326
20	1475347	116	0.022151501330729
20	1513520	117	0.0089565620001986
20	1553855	118	-0.0044314338545195
20	1594190	119	-0.047886229138377
20	1636043	120	0.0085923712483367
20	1675536	121	0.015499887420179
20	1716052	122	0.0077072606231461
20	1755705	123	-0.026888666561899
20	1795518	124	0.054384138996464
20	1835371	125	-0.0224525171992
20	1875304	126	-0.0027423460999954
20	1914917	127	-0.0046041796958898
20	1954210	128	0.013529020359105
20	1993063	129	0.016206452480555
20	2031676	130	-0.04826063980558
20	2070129	131	0.03069947731392
20	2108422	132	-0.026539058075534
20	2146475	133	0.031988629272667
20	2184488	134	-0.028933362237043
20	2222501	135	-0.0039275603354414
20	2260514	136	-0.0071518792216141
20	2298527	137	-0.0070256781209084
20	2336541	138	-0.0053612695140068
20	2374514	139	0.020454279558676
20	2412487	140	0.041681452019715
20	2453388	141	-0.041369208305395
20	2494451	142	0.044053341037418
20	2535514	143	-0.041960082446997
20	2579579	144	0.017602611364181
20	2623812	145	0.019317574598801
20	2671201	146	-0.03160560864825
20	2718764	147	0.034735391594996
20	2769597	148	-0.018436119750602
20	2820570	149	0.017243207743415
20	2871543	150	-0.020795152003243
20	2925900	151	0.037849857235346
20	2980443	152	-0.084988570145465
20	3038484	153	0.02357962257402
20	3096677	154	0.0076095187154346
20	3158482	155	0.016219032401506
20	3220485	156	-0.017925853980416
20	3286214	157	-0.020700401351033
20	3352107	158	0.038286670646761
20	3421840	159	0.034581990446014
20	3491783	160	-0.040825037541877
20	3561726	161	-0.00032526035732738
20	3635624	162	-0.0073528624933672
20	3709737	163	0.011336437052319
20	3783810	164	0.029871279639895
20	3861951	165	-0.070319959331552
20	3940314	166	0.034781998234561
20	4018677	167	0.032862829732003
20	4097000	168	-0.02875641316745
20	4175323	169	0.0072181658221144
20	4253646	170	-0.031659208414486
20	4336055	171	0.025873411549695
20	4421141	172	0.031283703984949
20	4506193	173	0.028492568061919
20	4593193	174	0.28225236592381
20	4675886	175	-0.38762158890172
20	4758206	176	-0.19426073693804
20	4840528	177	0.18508124503498
20	4923181	178	1.1248951056469
20	5005464	179	1.4444661162687
20	5087985	180	1.7478313708818
20	5170505	181	2.0073380580172
20	5252801	182	1.8833461567666
20	5335001	183	1.98039787455
20	5417110	184	2.0168868680252
20	5499405	185	0.21146263345186
20	5581978	186	0.079000994174104
20	5664365	187	-0.017497811926116
20	5746526	188	0.13836398869336
20	5829059	189	-0.052735964217581
20	5911099	190	0.0081146867154249
20	5992660	191	-0.023755389291836
20	6073397	192	0.0124210610379
20	6153819	193	0.047573438098622
20	6233970	194	0.04720340737158
20	6313785	195	-0.0039034856212634
20	6393782	196	-0.083098114676728
20	6473699	197	0.033583450761114
20	6557265	198	0.075968487082111
20	6640829	199	-0.088021663212254
20	6724345	200	0.066730552701573
19	7886	12	0.98564389594301
19	9939	13	1.2017584153193
19	12032	14	1.2806815396698
19	14125	15	1.3154576650774
19	16218	16	1.3617458402318
19	18311	17	1.3182440034284
19	21128	18	1.3727577782571
19	23991	19	1.3435010994607
19	26854	20	1.3591243418038
19	29717	21	1.3196133091632
19	32580	22	1.3942048845421
19	36689	23	1.3535323524102
19	40850	24	1.3600978134058
19	45367	25	1.3607341153783
19	49170	26	1.3229593490015
19	53175	27	1.3593876667509
19	57880	28	1.3960591059009
19	62643	29	1.347261730277
19	67406	30	1.3267551423349
19	72169	31	1.3169471935648
19	77998	32	1.3578162472061
19	83891	33	1.3816640412736
19	89784	34	1.332162414793
19	95677	35	1.3122539284631
19	101570	36	1.3814237710172
19	108643	37	1.375057570118
19	115786	38	1.3520231995742
19	122929	39	1.3678561609497
19	130072	40	1.3162631089605
19	137216	41	1.3066249686603
19	145653	42	1.3636463543101
19	154166	43	1.3651529917917
19	162679	44	1.3741727545274
19	171192	45	1.3787232426905
19	179665	46	1.353109279601
19	189546	47	1.3324503587908
19	199509	48	1.3829950820693
19	209472	49	1.327469714164
19	219435	50	1.3765809574063
19	230921	51	1.318096356951
19	242494	52	1.343682238207
19	254067	53	1.3238067660373
19	265640	54	1.397208589639
19	277213	55	1.3332454718401
19	288786	56	1.3368296461289
19	300359	57	1.3733248870336
19	311932	58	1.3585615066333
19	323505	59	1.32224014244
19	335078	60	1.340077102726
19	347434	61	1.3301510387568
19	359778	62	1.336325023429
19	372484	63	1.3378018020977
19	384057	64	1.3517340151477
19	395630	65	1.3674994995914
19	407203	66	1.3718778404906
19	418776	67	1.3274751182742
19	430349	68	1.3648120612484
19	441922	69	1.3226606766488
19	453335	70	1.371944386781
19	464668	71	1.3586521942831
19	475921	72	1.3592916154012
19	487094	73	1.3647950622323
19	498187	74	1.3674777294814
19	509280	75	1.3391229857032
19	520293	76	1.3397035519955
19	531226	77	1.3346691257448
19	542079	78	1.3259214917093
19	552932	79	1.3377516207426
19	563785	80	1.3507496635066
19	574639	81	1.3783980820352
19	585492	82	1.3742588187045
19	596345	83	1.3598561374507
19	608834	84	1.3451390032597
19	621417	85	1.3359985770516
19	633960	86	1.3596030065315
19	648173	87	1.3621359199991
19	662326	88	1.3476937677579
19	678263	89	1.3602294216778
19	694226	90	1.365031053821
19	712091	91	1.3677130511448
19	730064	92	1.3116625265525
19	750053	93	1.3696749838972
19	770156	94	1.3226334552474
19	792389	95	1.3399933585474
19	814742	96	1.3688553814944
19	839339	97	1.3574883760524
19	864062	98	1.3694028732939
19	891143	99	1.3525431469411
19	918356	100	1.3357093741377
19	945529	101	1.326802963294
19	975174	102	1.344797934032
19	1004957	103	1.3966448313684
19	1037286	104	1.3665194461125
19	1069759	105	1.3240063027968
19	1102232	106	1.3188333047999
19	1137405	107	1.3769877024757
19	1172729	108	1.3507904574739
19	1208012	109	1.3688700958826
19	1246109	110	1.3401078160725
19	1284362	111	1.3375110481872
19	1322575	112	1.34694069001
19	1360788	113	1.3992750530507
19	1399001	114	1.3415116829035
19	1437174	115	1.3449661526048
19	1475347	116	1.3671176539355
19	1513520	117	1.3760742159357
19	1553855	118	1.3716427820812
19	1594190	119	1.3237565529428
19	1636043	120	1.3323489241911
19	1675536	121	1.3478488116113
19	1716052	122	1.3555560722344
19	1755705	123	1.3286674056725
19	1795518	124	1.383051544669
19	1835371	125	1.3605990274698
19	1875304	126	1.3578566813698
19	1914917	127	1.3532525016739
19	1954210	128	1.366781522033
19	1993063	129	1.3829879745136
19	2031676	130	1.334727334708
19	2070129	131	1.3654268120219
19	2108422	132	1.3388877539464
19	2146475	133	1.3708763832191
19	2184488	134	1.341943020982
19	2222501	135	1.3380154606466
19	2260514	136	1.330863581425
19	2298527	137	1.323837903304
19	2336541	138	1.31847663379
19	2374514	139	1.3389309133487
19	2412487	140	1.3806123653684
19	2453388	141	1.339243157063
19	2494451	142	1.3832964981005
19	2535514	143	1.3413364156535
19	2579579	144	1.3589390270176
19	2623812	145	1.3782566016164
19	2671201	146	1.3466509929682
19	2718764	147	1.3813863845632
19	2769597	148	1.3629502648126
19	2820570	149	1.380193472556
19	2871543	150	1.3593983205528
19	2925900	151	1.3972481777881
19	2980443	152	1.3122596076426
19	3038484	153	1.3358392302167
19	3096677	154	1.3434487489321
19	3158482	155	1.3596677813336
19	3220485	156	1.3417419273532
19	3286214	157	1.3210415260022
19	3352107	158	1.3593281966489
19	3421840	159	1.3939101870949
19	3491783	160	1.353085149553
19	3561726	161	1.3527598891957
19	3635624	162	1.3454070267024
19	3709737	163	1.3567434637547
19	3783810	164	1.3866147433946
19	3861951	165	1.316294784063
19	3940314	166	1.3510767822976
19	4018677	167	1.3839396120296
19	4097000	168	1.3551831988621
19	4175323	169	1.3624013646842
19	4253646	170	1.3307421562698
19	4336055	171	1.3566155678195
19	4421141	172	1.3878992718044
19	4506193	173	1.4163918398663
19	4593193	174	1.6986442057901
19	4675886	175	1.3110226168884
19	4758206	176	1.1167618799504
19	4840528	177	1.3018431249854
19	4923181	178	2.4267382306322
19	5005464	179	3.8712043469009
19	5087985	180	5.6190357177827
19	5170505	181	7.6263737757999
19	5252801	182	9.5097199325665
19	5335001	183	11.490117807116
19	5417110	184	13.507004675142
19	5499405	185	13.718467308594
19	5581978	186	13.797468302768
19	5664365	187	13.779970490842
19	5746526	188	13.918334479535
19	5829059	189	13.865598515317
19	5911099	190	13.873713202033
19	5992660	191	13.849957812741
19	6073397	192	13.862378873779
19	6153819	193	13.909952311877
19	6233970	194	13.957155719249
19	6313785	195	13.953252233628
19	6393782	196	13.870154118951
19	6473699	197	13.903737569712
19	6557265	198	13.979706056794
19	6640829	199	13.891684393582
19	6724345	200	13.958414946284
16	6477	11	1578.1626726352
16	7886	12	1578.1626726352
16	9939	13	1578.43936978
16	12032	14	1578.8278054055
16	14125	15	1579.2596165901
16	16218	16	1579.7106796093
16	18311	17	1580.1709810933
16	21128	18	1580.6349642538
16	23991	19	1581.1019935403
16	26854	20	1582.037461265
16	29717	21	1583.0014477475
16	32580	22	1583.959111263
16	36689	23	1584.9283644697
16	40850	24	1585.890858789
16	45367	25	1586.8511172635
16	49170	26	1587.811673956
16	53175	27	1588.7718229424
16	57880	28	1589.7386771739
16	62643	29	1590.7094246624
16	67406	30	1591.6824994059
16	72169	31	1592.6441067746
16	77998	32	1593.6081311181
16	83891	33	1594.5751027754
16	89784	34	1595.5341960043
16	95677	35	1596.4951502839
16	101570	36	1597.4597086832
16	108643	37	1598.4183017677
16	115786	38	1599.3787830602
16	122929	39	1600.3483041935
16	130072	40	1601.3092761664
16	137216	41	1602.264620536
16	145653	42	1603.2226449056
16	154166	43	1604.180176531
16	162679	44	1605.1415443067
16	171192	45	1606.1035381714
16	179665	46	1607.0666280035
16	189546	47	1608.0264628269
16	199509	48	1608.9896279247
16	209472	49	1609.947122979
16	219435	50	1610.9027547305
16	230921	51	1611.8772919234
16	242494	52	1612.8281267928
16	254067	53	1613.7940533478
16	265640	54	1614.7616126379
16	277213	55	1615.7262563054
16	288786	56	1616.6873741308
16	300359	57	1617.653051205
16	311932	58	1618.6165619148
16	323505	59	1619.5719786268
16	335078	60	1620.5325144371
16	347434	61	1621.5006516017
16	359778	62	1622.4647160778
16	372484	63	1623.4223373085
16	384057	64	1624.3827295098
16	395630	65	1625.3490920663
16	407203	66	1626.3146255119
16	418776	67	1627.2813343452
16	430349	68	1628.2469854401
16	441922	69	1629.2073477712
16	453335	70	1630.1651784042
16	464668	71	1631.1359798964
16	475921	72	1632.1076534297
16	487094	73	1633.0622914005
16	498187	74	1634.0209560748
16	509280	75	1634.9845309192
16	520293	76	1635.9566442538
16	531226	77	1636.9234923935
16	542079	78	1637.8798177801
16	552932	79	1638.8479686035
16	563785	80	1639.8049805025
16	574639	81	1640.765686024
16	585492	82	1641.733425173
16	596345	83	1642.6984955948
16	608834	84	1643.6600385616
16	621417	85	1644.6157008447
16	633960	86	1645.5809917077
16	648173	87	1646.5459122909
16	662326	88	1647.6096703885
16	678263	89	1648.6737073539
16	694226	90	1649.7462766934
16	712091	91	1650.8192344941
16	730064	92	1651.8916279627
16	750053	93	1652.9475031942
16	770156	94	1654.0150455134
16	792389	95	1655.0825375644
16	814742	96	1656.1546665002
16	839339	97	1657.4265095675
16	864062	98	1658.7703586761
16	891143	99	1660.1109072845
16	918356	100	1661.4465147862
16	945529	101	1662.7766532721
16	975174	102	1664.0980876721
16	1004957	103	1665.4467061376
16	1037286	104	1666.8001528094
16	1069759	105	1668.1412218325
16	1102232	106	1669.4506853344
16	1137405	107	1670.6729889894
16	1172729	108	1671.7390237339
16	1208012	109	1672.7124130363
16	1246109	110	1673.570763764
16	1284362	111	1674.4171043327
16	1322575	112	1675.2690464798
16	1360788	113	1676.120634865
16	1399001	114	1676.9719646377
16	1437174	115	1677.8219699953
16	1475347	116	1678.6806316487
16	1513520	117	1679.5303279851
16	1553855	118	1680.4278612733
16	1594190	119	1681.3441058611
16	1636043	120	1682.2482543774
16	1675536	121	1683.1494873296
16	1716052	122	1684.0520434994
16	1755705	123	1684.9599364875
16	1795518	124	1685.8606885048
16	1835371	125	1686.7658978449
16	1875304	126	1687.6748032821
16	1914917	127	1688.5804324178
16	1954210	128	1689.4846112067
16	1993063	129	1690.3921047179
16	2031676	130	1691.303416742
16	2070129	131	1692.2106518289
16	2108422	132	1693.120674816
16	2146475	133	1693.9979380155
16	2184488	134	1694.1989170695
16	2222501	135	1694.4003626583
16	2260514	136	1694.6001630807
16	2298527	137	1694.8001927063
16	2336541	138	1695.0004104292
16	2374514	139	1695.2014473267
16	2412487	140	1695.3999808859
16	2453388	141	1695.6005062629
16	2494451	142	1695.799685928
16	2535514	143	1696.0017242972
16	2579579	144	1696.2024549171
16	2623812	145	1696.3975391202
16	2671201	146	1696.5577240521
16	2718764	147	1696.7175596012
16	2769597	148	1696.8780683819
16	2820570	149	1697.0390134482
16	2871543	150	1697.1989364754
16	2925900	151	1697.3590781819
16	2980443	152	1697.5160295703
16	3038484	153	1697.6438481901
16	3096677	154	1697.770701699
16	3158482	155	1697.898407178
16	3220485	156	1698.0254295589
16	3286214	157	1698.1520357728
16	3352107	158	1698.2791851424
16	3421840	159	1698.407175662
16	3491783	160	1698.5364030302
16	3561726	161	1698.6636704952
16	3635624	162	1698.7913313229
16	3709737	163	1698.9181254562
16	3783810	164	1699.0460464852
16	3861951	165	1699.1733566783
16	3940314	166	1699.3001117408
16	4018677	167	1699.4273531577
16	4097000	168	1699.5542952027
16	4175323	169	1699.6827282337
16	4253646	170	1699.8105200473
16	4336055	171	1699.9381718542
16	4421141	172	1700.0671241572
16	4506193	173	1700.1967312265
16	4593193	174	1700.3267688518
16	4675886	175	1700.4855430033
16	4758206	176	1700.6249010116
16	4840528	177	1700.7328849304
16	4923181	178	1700.848242213
16	5005464	179	1700.9602723373
16	5087985	180	1701.1572819501
16	5170505	181	1703.6490878826
16	5252801	182	1710.29846517
16	5335001	183	1718.8223184031
16	5417110	184	1729.2972219279
16	5499405	185	1741.7791362945
16	5581978	186	1755.2985116467
16	5664365	187	1768.9762227731
16	5746526	188	1782.7051547077
16	5829059	189	1796.485425978
16	5911099	190	1810.2842217367
16	5992660	191	1824.0884113619
16	6073397	192	1837.9276650827
16	6153819	193	1851.7568992348
16	6233970	194	1865.622477184
16	6313785	195	1879.496519587
16	6393782	196	1893.3883132692
16	6473699	197	1907.2563575916
16	6557265	198	1921.1128587676
16	6640829	199	1934.9884358179
16	6724345	200	1948.8491945388
15	6477	11	2415.6610717325
15	7886	12	2415.6610717325
15	9939	13	2414.907528492
15	12032	14	2413.8496822334
15	14125	15	2412.6737091349
15	16218	16	2411.4453065458
15	18311	17	2410.191744384
15	21128	18	2408.928155724
15	23991	19	2407.6562713998
15	26854	20	2406.6840624934
15	29717	21	2405.7323175776
15	32580	22	2404.7868153334
15	36689	23	2403.8298705749
15	40850	24	2402.8795988729
15	45367	25	2401.9315346235
15	49170	26	2400.9831759423
15	53175	27	2400.0352197905
15	57880	28	2399.080643543
15	62643	29	2398.1222234779
15	67406	30	2397.1615057122
15	72169	31	2396.2121096979
15	77998	32	2395.2603274017
15	83891	33	2394.3056352192
15	89784	34	2393.3587214173
15	95677	35	2392.409970199
15	101570	36	2391.4576606288
15	108643	37	2390.5112406198
15	115786	38	2389.5629563823
15	122929	39	2388.605747099
15	130072	40	2387.6569784119
15	137216	41	2386.713765863
15	145653	42	2385.767907348
15	154166	43	2384.8225353191
15	162679	44	2383.873375855
15	171192	45	2382.9235982532
15	179665	46	2381.972738601
15	189546	47	2381.0250926221
15	199509	48	2380.0741586599
15	209472	49	2379.1288227382
15	219435	50	2378.185326457
15	230921	51	2377.223164813
15	242494	52	2376.2844044993
15	254067	53	2375.3307441472
15	265640	54	2374.3754717946
15	277213	55	2373.4230780392
15	288786	56	2372.4741653509
15	300359	57	2371.520751312
15	311932	58	2370.5694761267
15	323505	59	2369.6261921547
15	335078	60	2368.677854091
15	347434	61	2367.722011202
15	359778	62	2366.7701892825
15	372484	63	2365.8247287862
15	384057	64	2364.8765325079
15	395630	65	2363.9224416915
15	407203	66	2362.9691694573
15	418776	67	2362.0147367613
15	430349	68	2361.0613483718
15	441922	69	2360.1131815838
15	453335	70	2359.1675143448
15	464668	71	2358.2090409626
15	475921	72	2357.2497066128
15	487094	73	2356.3071914925
15	498187	74	2355.3607008037
15	509280	75	2354.4093622982
15	520293	76	2353.4495937316
15	531226	77	2352.4950234987
15	542079	78	2351.5508423907
15	552932	79	2350.5949860165
15	563785	80	2349.650127114
15	574639	81	2348.7016214945
15	585492	82	2347.7461715664
15	596345	83	2346.793356476
15	608834	84	2345.8440240457
15	621417	85	2344.9004976206
15	633960	86	2343.9474648881
15	648173	87	2343.0063238339
15	662326	88	2342.1753638611
15	678263	89	2341.3441860494
15	694226	90	2340.5063431306
15	712091	91	2339.6681967634
15	730064	92	2338.8304912267
15	750053	93	2338.0056889947
15	770156	94	2337.1717729582
15	792389	95	2336.3378961884
15	814742	96	2335.5003972937
15	839339	97	2335.1629091921
15	864062	98	2334.939766961
15	891143	99	2334.7171727682
15	918356	100	2334.4953990319
15	945529	101	2334.2745334097
15	975174	102	2334.0551130755
15	1004957	103	2333.928232508
15	1037286	104	2333.8326950959
15	1069759	105	2334.0030755141
15	1102232	106	2334.292285529
15	1137405	107	2334.8723715087
15	1172729	108	2335.6812363239
15	1208012	109	2336.6168178442
15	1246109	110	2337.6797117247
15	1284362	111	2338.7277334497
15	1322575	112	2339.7826915978
15	1360788	113	2340.8372116834
15	1399001	114	2341.8914115299
15	1437174	115	2342.9439713554
15	1475347	116	2344.0072502546
15	1513520	117	2345.0594274198
15	1553855	118	2346.0714525917
15	1594190	119	2347.0874418798
15	1636043	120	2348.0900182874
15	1675536	121	2349.0893617355
15	1716052	122	2350.0901724496
15	1755705	123	2351.0969009615
15	1795518	124	2352.0957111191
15	1835371	125	2353.0994638349
15	1875304	126	2354.1073150142
15	1914917	127	2355.1115332248
15	1954210	128	2356.1141432016
15	1993063	129	2357.1204287488
15	2031676	130	2358.1309485018
15	2070129	131	2359.1369474918
15	2108422	132	2360.1460378806
15	2146475	133	2361.1631083102
15	2184488	134	2362.5077338679
15	2222501	135	2363.8554807112
15	2260514	136	2365.1922207752
15	2298527	137	2366.5304942993
15	2336541	138	2367.870026262
15	2374514	139	2369.2150388086
15	2412487	140	2370.5433030793
15	2453388	141	2371.8848933643
15	2494451	142	2373.2174803277
15	2535514	143	2374.5691931038
15	2579579	144	2375.91215654
15	2623812	145	2377.2473599282
15	2671201	146	2378.5931994008
15	2718764	147	2379.9361034319
15	2769597	148	2381.2846638152
15	2820570	149	2382.6368897735
15	2871543	150	2383.9805287782
15	2925900	151	2385.3260050819
15	2980443	152	2386.6795234028
15	3038484	153	2388.0312906508
15	3096677	154	2389.3728512025
15	3158482	155	2390.7234219034
15	3220485	156	2392.066768393
15	3286214	157	2393.4057136322
15	3352107	158	2394.7504031061
15	3421840	159	2396.1039883023
15	3491783	160	2397.470654007
15	3561726	161	2398.8165924177
15	3635624	162	2400.1666909008
15	3709737	163	2401.5076235211
15	3783810	164	2402.8604738057
15	3861951	165	2404.2068641031
15	3940314	166	2405.5473835162
15	4018677	167	2406.8930464452
15	4097000	168	2408.2355433286
15	4175323	169	2409.5938083869
15	4253646	170	2410.9452921292
15	4336055	171	2412.2952952202
15	4421141	172	2413.6590519121
15	4506193	173	2415.0297332063
15	4593193	174	2416.4049679114
15	4675886	175	2418.0841105722
15	4758206	176	2419.5579145516
15	4840528	177	2420.6999165891
15	4923181	178	2421.9198968747
15	5005464	179	2423.70893383
15	5087985	180	2426.8068396177
15	5170505	181	2430.4984639606
15	5252801	182	2431.5919431939
15	5335001	183	2432.8872615215
15	5417110	184	2434.4790691403
15	5499405	185	2436.3758700358
15	5581978	186	2438.2365389956
15	5664365	187	2439.0914142622
15	5746526	188	2440.0626219821
15	5829059	189	2441.064679819
15	5911099	190	2442.0680846983
15	5992660	191	2443.0718818025
15	6073397	192	2444.0782286571
15	6153819	193	2445.0838469203
15	6233970	194	2446.0921079897
15	6313785	195	2447.1009845675
15	6393782	196	2448.1111519623
15	6473699	197	2449.1195923786
15	6557265	198	2450.1271934137
15	6640829	199	2450.1353402105
15	6724345	200	2449.0248181018

