version 2
run CCH_SCH_Safety_B_100Bytes_Q_1-0-20180924-03:38:14-32411
attr configname CCH_SCH_Safety_B_100Bytes_Q_1
attr datetime 20180924-03:38:14
attr experiment CCH_SCH_Safety_B_100Bytes_Q_1
attr inifile omnetpp.ini
attr iterationvars $0=1
attr iterationvarsf 1-
attr measurement $0=1
attr network vanets.RSUScenario
attr processid 32411
attr repetition 0
attr replication #0
attr resultdir results
attr runnumber 0
attr seedset 0
param **.debug false
param **.coreDebug false
param *.annotations.draw false
param *.rsu[*].appl.beaconLengthBits 800bit
param *.node[*].appl.beaconLengthBits 800bit
param *.metricsApplication.appl.beaconLengthBits 800bit
param *.node[*].appl.sendBeacons true
param *.rsu[*].appl.sendBeacons false
param *.metricsApplicaiton[*].appl.sendBeacons false
param *.node[*].appl.dataOnSch true
param *.rsu[*].appl.dataOnSch false
param *.metricsApplication[*].appl.dataOnSch false
param *.node[*].appl.sendData true
param *.rsu[*].appl.sendData true
param *.metricsApplication[*].appl.sendData false
param *.node[*].appl.beaconInterval 0.1s
param *.rsu[*].appl.beaconInterval 0.1s
param *.metricsApplication[*].appl.beaconInterval 0.1s
param *.node[*].appl.beaconPriority 3
param *.rsu[*].appl.beaconPriority 3
param *.metricsApplication[*].appl.beaconPriority 3
param *.node[*].appl.dataPriority 2
param *.rsu[*].appl.dataPriority 2
param *.metricsApplication.appl.beaconPriority 2
param *.**.nic.mac1609_4.queueSize 1
param *.**.nic.mac1609_4.useServiceChannel true
param *.manager.launchConfig "xmldoc(\"erlangen.launchd.xml\")"
param **.debug false
param **.coreDebug false
param *.playgroundSizeX 2500m
param *.playgroundSizeY 2500m
param *.playgroundSizeZ 50m
param *.annotations.draw false
param *.obstacles.debug false
param *.obstacles.obstacles "xmldoc(\"config.xml\", \"//AnalogueModel[@type='SimpleObstacleShadowing']/obstacles\")"
param *.world.useTorus false
param *.world.use2D false
param *.manager.updateInterval 1s
param *.manager.host "\"localhost\""
param *.manager.port 9999
param *.manager.autoShutdown true
param *.manager.launchConfig "xmldoc(\"erlangen.launchd.xml\")"
param *.manager.moduleType "\"vanets.CarWithMetrics\""
param *.manager.moduleName "\"node\""
param *.manager.moduleDisplayString "\"\""
param *.manager.margin 25
param *.manager.numVehicles 5
param *.manager.debug true
param *.rsu[0].mobility.x 2000
param *.rsu[0].mobility.y 2000
param *.rsu[0].mobility.z 3
param *.rsu[*].applType "\"TraCIDemoRSU11p\""
param *.rsu[*].appl.headerLength "80 bit"
param *.rsu[*].appl.sendBeacons false
param *.rsu[*].appl.dataOnSch false
param *.rsu[*].appl.beaconInterval 1s
param *.rsu[*].appl.beaconUserPriority 7
param *.rsu[*].appl.dataUserPriority 5
param *.metricsApplication.applType "\"TraCIDemoRSU11p\""
param *.metricsApplication.appl.debug false
param *.metricsApplication.appl.headerLength "80 bit"
param *.metricsApplication.appl.sendBeacons false
param *.metricsApplication.appl.dataOnSch false
param *.metricsApplication.appl.beaconInterval 1s
param *.metricsApplication.appl.beaconUserPriority 7
param *.metricsApplication.appl.dataUserPriority 2
param *.connectionManager.sendDirect true
param *.connectionManager.maxInterfDist 2600m
param *.connectionManager.drawMaxIntfDist false
param *.**.nic.mac1609_4.useServiceChannel false
param *.**.nic.mac1609_4.txPower 100mW
param *.**.nic.mac1609_4.bitrate 6Mbps
param *.**.nic.phy80211p.sensitivity -89dBm
param *.**.nic.mac1609_4.queueSize 1
param *.**.nic.phy80211p.useThermalNoise true
param *.**.nic.phy80211p.thermalNoise -110dBm
param *.**.nic.phy80211p.decider "xmldoc(\"config.xml\", \"/root/Decider[@type='Decider80211p']\")"
param *.**.nic.phy80211p.decider.collectCollisionStats true
param *.**.nic.phy80211p.analogueModels "xmldoc(\"config.xml\")"
param *.**.nic.phy80211p.usePropagationDelay true
param *.**.nic.phy80211p.collectCollisionStatistics true
param *.**.nic.phy80211p.antenna "xmldoc(\"antenna.xml\", \"/root/Antenna[@id='monopole']\")"
param *.node[*].applType "\"TraCIDemo11p\""
param *.node[*].appl.headerLength "80 bit"
param *.node[*].appl.sendBeacons false
param *.node[*].appl.dataOnSch false
param *.node[*].appl.beaconInterval 1s
param *.node[*].veinsmobilityType.debug true
param *.node[*].veinsmobility.x 0
param *.node[*].veinsmobility.y 0
param *.node[*].veinsmobility.z 1.895
param *.node[*0].veinsmobility.accidentCount 1
param *.node[*0].veinsmobility.accidentStart 10s
param *.node[*0].veinsmobility.accidentDuration 30s

scalar RSUScenario.node[1].appl generatedWSMs 1
scalar RSUScenario.node[1].appl receivedWSMs 46
scalar RSUScenario.node[1].appl generatedBSMs 1969
scalar RSUScenario.node[1].appl receivedBSMs 37814
scalar RSUScenario.node[1].appl generatedWSAs 3
scalar RSUScenario.node[1].appl receivedWSAs 83
scalar RSUScenario.node[1].appl beaconInterval 0.1
scalar RSUScenario.node[1].nic.phy80211p busyTime 0.036989482233528
scalar RSUScenario.node[1].nic.phy80211p ncollisions 3
scalar RSUScenario.node[1].nic.mac1609_4 throughputMetricMac 189.76232398038
scalar RSUScenario.node[1].nic.mac1609_4 throughputMbps 0.16671029513755
scalar RSUScenario.node[1].nic.mac1609_4 throughputControlMbps 0
scalar RSUScenario.node[1].nic.mac1609_4 receivedFramesLowerMsg 37943
scalar RSUScenario.node[1].nic.mac1609_4 receivedBitsLowerPackets 0
scalar RSUScenario.node[1].nic.mac1609_4 receivedBitsLoserWsm 0
scalar RSUScenario.node[1].nic.mac1609_4 packetsNotForMe 0
scalar RSUScenario.node[1].nic.mac1609_4 receivedTotalBits 33333744
scalar RSUScenario.node[1].nic.mac1609_4 collisionsPktNonDecoded 0
scalar RSUScenario.node[1].nic.mac1609_4 chUtilizationCCH 0.380212
scalar RSUScenario.node[1].nic.mac1609_4 chUtilizationSCH1 0
scalar RSUScenario.node[1].nic.mac1609_4 chUtilizationSCH2 0
scalar RSUScenario.node[1].nic.mac1609_4 chUtilizationSCH3 0.000233
scalar RSUScenario.node[1].nic.mac1609_4 chUtilizationSCH4 0
scalar RSUScenario.node[1].nic.mac1609_4 chUtilizationHPPS 0
scalar RSUScenario.node[1].nic.mac1609_4 chUtilizationCRIT_SOL 0
scalar RSUScenario.node[1].nic.mac1609_4 previousSignalQualityCCH 100
scalar RSUScenario.node[1].nic.mac1609_4 previousSignalQualitySCH1 0
scalar RSUScenario.node[1].nic.mac1609_4 previousSignalQualitySCH2 0
scalar RSUScenario.node[1].nic.mac1609_4 previousSignalQualitySCH3 100
scalar RSUScenario.node[1].nic.mac1609_4 previousSignalQualitySCH4 0
scalar RSUScenario.node[1].nic.mac1609_4 chPacketsCCH 1972
scalar RSUScenario.node[1].nic.mac1609_4 chPacketsSCH1 0
scalar RSUScenario.node[1].nic.mac1609_4 chPacketsSCH2 0
scalar RSUScenario.node[1].nic.mac1609_4 chPacketsSCH3 1
scalar RSUScenario.node[1].nic.mac1609_4 chPacketsSCH4 0
scalar RSUScenario.node[1].nic.mac1609_4 ReceivedUnicastPackets 0
scalar RSUScenario.node[1].nic.mac1609_4 ReceivedBroadcasts 37943
scalar RSUScenario.node[1].nic.mac1609_4 SentPackets 1973
scalar RSUScenario.node[1].nic.mac1609_4 SentAcknowledgements 0
scalar RSUScenario.node[1].nic.mac1609_4 SNIRLostPackets 56
scalar RSUScenario.node[1].nic.mac1609_4 RXTXLostPackets 0
scalar RSUScenario.node[1].nic.mac1609_4 TotalLostPackets 56
scalar RSUScenario.node[1].nic.mac1609_4 DroppedPacketsInMac 0
scalar RSUScenario.node[1].nic.mac1609_4 TooLittleTime 0
scalar RSUScenario.node[1].nic.mac1609_4 TimesIntoBackoff 1973
scalar RSUScenario.node[1].nic.mac1609_4 SlotsBackoff 3023
scalar RSUScenario.node[1].nic.mac1609_4 NumInternalContention 0
scalar RSUScenario.node[1].nic.mac1609_4 totalBusyTime 11.675216527862
scalar RSUScenario.node[1].nic.mac1609_4 throughputMetricMac:last 189.76232398038
attr source throughputSignalMac
attr title "throughputMetricMac, last"
scalar RSUScenario.node[1].nic.mac1609_4 throughputMetricMac:count 37943
attr source throughputSignalMac
attr title "throughputMetricMac, count"
scalar RSUScenario.node[1].nic.mac1609_4 throughputMetricMac:sum 4838107.057832
attr source throughputSignalMac
attr title "throughputMetricMac, sum"
scalar RSUScenario.node[1].nic.mac1609_4 throughputMetricMac:mean 127.50987159244
attr source throughputSignalMac
attr title "throughputMetricMac, mean"
scalar RSUScenario.node[1].veinsmobility startTime 3000
scalar RSUScenario.node[1].veinsmobility totalTime 197000
scalar RSUScenario.node[1].veinsmobility stopTime 200000
scalar RSUScenario.node[1].veinsmobility minSpeed 1.3195987516439
scalar RSUScenario.node[1].veinsmobility maxSpeed 1.3888888888889
scalar RSUScenario.node[1].veinsmobility totalDistance 266.75224284019
scalar RSUScenario.node[1].veinsmobility totalCO2Emission 230.42600343821
scalar RSUScenario.node[4].appl generatedWSMs 1
scalar RSUScenario.node[4].appl receivedWSMs 46
scalar RSUScenario.node[4].appl generatedBSMs 1879
scalar RSUScenario.node[4].appl receivedBSMs 37707
scalar RSUScenario.node[4].appl generatedWSAs 3
scalar RSUScenario.node[4].appl receivedWSAs 83
scalar RSUScenario.node[4].appl beaconInterval 0.1
scalar RSUScenario.node[4].nic.phy80211p busyTime 0.038640765957474
scalar RSUScenario.node[4].nic.phy80211p ncollisions 3
scalar RSUScenario.node[4].nic.mac1609_4 throughputMetricMac 189.22719056503
scalar RSUScenario.node[4].nic.mac1609_4 throughputMbps 0.16623937773198
scalar RSUScenario.node[4].nic.mac1609_4 throughputControlMbps 0
scalar RSUScenario.node[4].nic.mac1609_4 receivedFramesLowerMsg 37836
scalar RSUScenario.node[4].nic.mac1609_4 receivedBitsLowerPackets 0
scalar RSUScenario.node[4].nic.mac1609_4 receivedBitsLoserWsm 0
scalar RSUScenario.node[4].nic.mac1609_4 packetsNotForMe 0
scalar RSUScenario.node[4].nic.mac1609_4 receivedTotalBits 33239584
scalar RSUScenario.node[4].nic.mac1609_4 collisionsPktNonDecoded 0
scalar RSUScenario.node[4].nic.mac1609_4 chUtilizationCCH 0.362842
scalar RSUScenario.node[4].nic.mac1609_4 chUtilizationSCH1 0
scalar RSUScenario.node[4].nic.mac1609_4 chUtilizationSCH2 0
scalar RSUScenario.node[4].nic.mac1609_4 chUtilizationSCH3 0.000233
scalar RSUScenario.node[4].nic.mac1609_4 chUtilizationSCH4 0
scalar RSUScenario.node[4].nic.mac1609_4 chUtilizationHPPS 0
scalar RSUScenario.node[4].nic.mac1609_4 chUtilizationCRIT_SOL 0
scalar RSUScenario.node[4].nic.mac1609_4 previousSignalQualityCCH 100
scalar RSUScenario.node[4].nic.mac1609_4 previousSignalQualitySCH1 0
scalar RSUScenario.node[4].nic.mac1609_4 previousSignalQualitySCH2 0
scalar RSUScenario.node[4].nic.mac1609_4 previousSignalQualitySCH3 100
scalar RSUScenario.node[4].nic.mac1609_4 previousSignalQualitySCH4 0
scalar RSUScenario.node[4].nic.mac1609_4 chPacketsCCH 1882
scalar RSUScenario.node[4].nic.mac1609_4 chPacketsSCH1 0
scalar RSUScenario.node[4].nic.mac1609_4 chPacketsSCH2 0
scalar RSUScenario.node[4].nic.mac1609_4 chPacketsSCH3 0
scalar RSUScenario.node[4].nic.mac1609_4 chPacketsSCH4 0
scalar RSUScenario.node[4].nic.mac1609_4 ReceivedUnicastPackets 0
scalar RSUScenario.node[4].nic.mac1609_4 ReceivedBroadcasts 37836
scalar RSUScenario.node[4].nic.mac1609_4 SentPackets 1883
scalar RSUScenario.node[4].nic.mac1609_4 SentAcknowledgements 0
scalar RSUScenario.node[4].nic.mac1609_4 SNIRLostPackets 46
scalar RSUScenario.node[4].nic.mac1609_4 RXTXLostPackets 0
scalar RSUScenario.node[4].nic.mac1609_4 TotalLostPackets 46
scalar RSUScenario.node[4].nic.mac1609_4 DroppedPacketsInMac 0
scalar RSUScenario.node[4].nic.mac1609_4 TooLittleTime 0
scalar RSUScenario.node[4].nic.mac1609_4 TimesIntoBackoff 1884
scalar RSUScenario.node[4].nic.mac1609_4 SlotsBackoff 2885
scalar RSUScenario.node[4].nic.mac1609_4 NumInternalContention 0
scalar RSUScenario.node[4].nic.mac1609_4 totalBusyTime 10.55721887528
scalar RSUScenario.node[4].nic.mac1609_4 throughputMetricMac:last 189.22719056503
attr source throughputSignalMac
attr title "throughputMetricMac, last"
scalar RSUScenario.node[4].nic.mac1609_4 throughputMetricMac:count 37836
attr source throughputSignalMac
attr title "throughputMetricMac, count"
scalar RSUScenario.node[4].nic.mac1609_4 throughputMetricMac:sum 4792477.0892517
attr source throughputSignalMac
attr title "throughputMetricMac, sum"
scalar RSUScenario.node[4].nic.mac1609_4 throughputMetricMac:mean 126.6644753476
attr source throughputSignalMac
attr title "throughputMetricMac, mean"
scalar RSUScenario.node[4].veinsmobility startTime 12000
scalar RSUScenario.node[4].veinsmobility totalTime 188000
scalar RSUScenario.node[4].veinsmobility stopTime 200000
scalar RSUScenario.node[4].veinsmobility minSpeed 0.82437053541553
scalar RSUScenario.node[4].veinsmobility maxSpeed 1.3888888888889
scalar RSUScenario.node[4].veinsmobility totalDistance 252.71420418519
scalar RSUScenario.node[4].veinsmobility totalCO2Emission 219.94251658444
scalar RSUScenario.node[0].appl generatedWSMs 3
scalar RSUScenario.node[0].appl receivedWSMs 18
scalar RSUScenario.node[0].appl generatedBSMs 1989
scalar RSUScenario.node[0].appl receivedBSMs 7925
scalar RSUScenario.node[0].appl generatedWSAs 3
scalar RSUScenario.node[0].appl receivedWSAs 33
scalar RSUScenario.node[0].appl beaconInterval 0.1
scalar RSUScenario.node[0].nic.phy80211p busyTime 0.007677829145728
scalar RSUScenario.node[0].nic.phy80211p ncollisions 0
scalar RSUScenario.node[0].nic.mac1609_4 throughputMetricMac 60.45705861228
scalar RSUScenario.node[0].nic.mac1609_4 throughputMbps 0.053032665003211
scalar RSUScenario.node[0].nic.mac1609_4 throughputControlMbps 0
scalar RSUScenario.node[0].nic.mac1609_4 receivedFramesLowerMsg 7976
scalar RSUScenario.node[0].nic.mac1609_4 receivedBitsLowerPackets 0
scalar RSUScenario.node[0].nic.mac1609_4 receivedBitsLoserWsm 0
scalar RSUScenario.node[0].nic.mac1609_4 packetsNotForMe 0
scalar RSUScenario.node[0].nic.mac1609_4 receivedTotalBits 6996512
scalar RSUScenario.node[0].nic.mac1609_4 collisionsPktNonDecoded 0
scalar RSUScenario.node[0].nic.mac1609_4 chUtilizationCCH 0.384072
scalar RSUScenario.node[0].nic.mac1609_4 chUtilizationSCH1 0
scalar RSUScenario.node[0].nic.mac1609_4 chUtilizationSCH2 0
scalar RSUScenario.node[0].nic.mac1609_4 chUtilizationSCH3 0.000699
scalar RSUScenario.node[0].nic.mac1609_4 chUtilizationSCH4 0
scalar RSUScenario.node[0].nic.mac1609_4 chUtilizationHPPS 0
scalar RSUScenario.node[0].nic.mac1609_4 chUtilizationCRIT_SOL 0
scalar RSUScenario.node[0].nic.mac1609_4 previousSignalQualityCCH 100
scalar RSUScenario.node[0].nic.mac1609_4 previousSignalQualitySCH1 0
scalar RSUScenario.node[0].nic.mac1609_4 previousSignalQualitySCH2 0
scalar RSUScenario.node[0].nic.mac1609_4 previousSignalQualitySCH3 100
scalar RSUScenario.node[0].nic.mac1609_4 previousSignalQualitySCH4 0
scalar RSUScenario.node[0].nic.mac1609_4 chPacketsCCH 1992
scalar RSUScenario.node[0].nic.mac1609_4 chPacketsSCH1 0
scalar RSUScenario.node[0].nic.mac1609_4 chPacketsSCH2 0
scalar RSUScenario.node[0].nic.mac1609_4 chPacketsSCH3 3
scalar RSUScenario.node[0].nic.mac1609_4 chPacketsSCH4 0
scalar RSUScenario.node[0].nic.mac1609_4 ReceivedUnicastPackets 0
scalar RSUScenario.node[0].nic.mac1609_4 ReceivedBroadcasts 7976
scalar RSUScenario.node[0].nic.mac1609_4 SentPackets 1995
scalar RSUScenario.node[0].nic.mac1609_4 SentAcknowledgements 0
scalar RSUScenario.node[0].nic.mac1609_4 SNIRLostPackets 0
scalar RSUScenario.node[0].nic.mac1609_4 RXTXLostPackets 0
scalar RSUScenario.node[0].nic.mac1609_4 TotalLostPackets 0
scalar RSUScenario.node[0].nic.mac1609_4 DroppedPacketsInMac 0
scalar RSUScenario.node[0].nic.mac1609_4 TooLittleTime 0
scalar RSUScenario.node[0].nic.mac1609_4 TimesIntoBackoff 2068
scalar RSUScenario.node[0].nic.mac1609_4 SlotsBackoff 3060
scalar RSUScenario.node[0].nic.mac1609_4 NumInternalContention 0
scalar RSUScenario.node[0].nic.mac1609_4 totalBusyTime 17.495766165734
scalar RSUScenario.node[0].nic.mac1609_4 throughputMetricMac:last 60.45705861228
attr source throughputSignalMac
attr title "throughputMetricMac, last"
scalar RSUScenario.node[0].nic.mac1609_4 throughputMetricMac:count 7976
attr source throughputSignalMac
attr title "throughputMetricMac, count"
scalar RSUScenario.node[0].nic.mac1609_4 throughputMetricMac:sum 449376.73309019
attr source throughputSignalMac
attr title "throughputMetricMac, sum"
scalar RSUScenario.node[0].nic.mac1609_4 throughputMetricMac:mean 56.341114981218
attr source throughputSignalMac
attr title "throughputMetricMac, mean"
scalar RSUScenario.node[0].veinsmobility startTime 1000
scalar RSUScenario.node[0].veinsmobility totalTime 199000
scalar RSUScenario.node[0].veinsmobility stopTime 200000
scalar RSUScenario.node[0].veinsmobility minSpeed 0
scalar RSUScenario.node[0].veinsmobility maxSpeed 13.998128671225
scalar RSUScenario.node[0].veinsmobility totalDistance 2198.0734118155
scalar RSUScenario.node[0].veinsmobility totalCO2Emission 451.91260206671
scalar RSUScenario.node[5].appl generatedWSMs 1
scalar RSUScenario.node[5].appl receivedWSMs 46
scalar RSUScenario.node[5].appl generatedBSMs 1829
scalar RSUScenario.node[5].appl receivedBSMs 37518
scalar RSUScenario.node[5].appl generatedWSAs 3
scalar RSUScenario.node[5].appl receivedWSAs 83
scalar RSUScenario.node[5].appl beaconInterval 0.1
scalar RSUScenario.node[5].nic.phy80211p busyTime 0.039498229508224
scalar RSUScenario.node[5].nic.phy80211p ncollisions 3
scalar RSUScenario.node[5].nic.mac1609_4 throughputMetricMac 188.28195454508
scalar RSUScenario.node[5].nic.mac1609_4 throughputMbps 0.16540757003486
scalar RSUScenario.node[5].nic.mac1609_4 throughputControlMbps 0
scalar RSUScenario.node[5].nic.mac1609_4 receivedFramesLowerMsg 37647
scalar RSUScenario.node[5].nic.mac1609_4 receivedBitsLowerPackets 0
scalar RSUScenario.node[5].nic.mac1609_4 receivedBitsLoserWsm 0
scalar RSUScenario.node[5].nic.mac1609_4 packetsNotForMe 0
scalar RSUScenario.node[5].nic.mac1609_4 receivedTotalBits 33073264
scalar RSUScenario.node[5].nic.mac1609_4 collisionsPktNonDecoded 0
scalar RSUScenario.node[5].nic.mac1609_4 chUtilizationCCH 0.353192
scalar RSUScenario.node[5].nic.mac1609_4 chUtilizationSCH1 0
scalar RSUScenario.node[5].nic.mac1609_4 chUtilizationSCH2 0
scalar RSUScenario.node[5].nic.mac1609_4 chUtilizationSCH3 0.000233
scalar RSUScenario.node[5].nic.mac1609_4 chUtilizationSCH4 0
scalar RSUScenario.node[5].nic.mac1609_4 chUtilizationHPPS 0
scalar RSUScenario.node[5].nic.mac1609_4 chUtilizationCRIT_SOL 0
scalar RSUScenario.node[5].nic.mac1609_4 previousSignalQualityCCH 100
scalar RSUScenario.node[5].nic.mac1609_4 previousSignalQualitySCH1 0
scalar RSUScenario.node[5].nic.mac1609_4 previousSignalQualitySCH2 0
scalar RSUScenario.node[5].nic.mac1609_4 previousSignalQualitySCH3 100
scalar RSUScenario.node[5].nic.mac1609_4 previousSignalQualitySCH4 0
scalar RSUScenario.node[5].nic.mac1609_4 chPacketsCCH 1832
scalar RSUScenario.node[5].nic.mac1609_4 chPacketsSCH1 0
scalar RSUScenario.node[5].nic.mac1609_4 chPacketsSCH2 0
scalar RSUScenario.node[5].nic.mac1609_4 chPacketsSCH3 1
scalar RSUScenario.node[5].nic.mac1609_4 chPacketsSCH4 0
scalar RSUScenario.node[5].nic.mac1609_4 ReceivedUnicastPackets 0
scalar RSUScenario.node[5].nic.mac1609_4 ReceivedBroadcasts 37647
scalar RSUScenario.node[5].nic.mac1609_4 SentPackets 1833
scalar RSUScenario.node[5].nic.mac1609_4 SentAcknowledgements 0
scalar RSUScenario.node[5].nic.mac1609_4 SNIRLostPackets 46
scalar RSUScenario.node[5].nic.mac1609_4 RXTXLostPackets 0
scalar RSUScenario.node[5].nic.mac1609_4 TotalLostPackets 46
scalar RSUScenario.node[5].nic.mac1609_4 DroppedPacketsInMac 0
scalar RSUScenario.node[5].nic.mac1609_4 TooLittleTime 0
scalar RSUScenario.node[5].nic.mac1609_4 TimesIntoBackoff 1836
scalar RSUScenario.node[5].nic.mac1609_4 SlotsBackoff 2707
scalar RSUScenario.node[5].nic.mac1609_4 NumInternalContention 0
scalar RSUScenario.node[5].nic.mac1609_4 totalBusyTime 10.155634089576
scalar RSUScenario.node[5].nic.mac1609_4 throughputMetricMac:last 188.28195454508
attr source throughputSignalMac
attr title "throughputMetricMac, last"
scalar RSUScenario.node[5].nic.mac1609_4 throughputMetricMac:count 37647
attr source throughputSignalMac
attr title "throughputMetricMac, count"
scalar RSUScenario.node[5].nic.mac1609_4 throughputMetricMac:sum 4722821.2291422
attr source throughputSignalMac
attr title "throughputMetricMac, sum"
scalar RSUScenario.node[5].nic.mac1609_4 throughputMetricMac:mean 125.45013491493
attr source throughputSignalMac
attr title "throughputMetricMac, mean"
scalar RSUScenario.node[5].veinsmobility startTime 17000
scalar RSUScenario.node[5].veinsmobility totalTime 183000
scalar RSUScenario.node[5].veinsmobility stopTime 200000
scalar RSUScenario.node[5].veinsmobility minSpeed 0.83774402481715
scalar RSUScenario.node[5].veinsmobility maxSpeed 13.958589120226
scalar RSUScenario.node[5].veinsmobility totalDistance 356.08221082044
scalar RSUScenario.node[5].veinsmobility totalCO2Emission 247.75260550498
scalar RSUScenario.node[14].appl generatedWSMs 1
scalar RSUScenario.node[14].appl receivedWSMs 27
scalar RSUScenario.node[14].appl generatedBSMs 1139
scalar RSUScenario.node[14].appl receivedBSMs 30737
scalar RSUScenario.node[14].appl generatedWSAs 2
scalar RSUScenario.node[14].appl receivedWSAs 48
scalar RSUScenario.node[14].appl beaconInterval 0.1
scalar RSUScenario.node[14].nic.phy80211p busyTime 0.051871508771962
scalar RSUScenario.node[14].nic.phy80211p ncollisions 1
scalar RSUScenario.node[14].nic.mac1609_4 throughputMetricMac 154.09842993351
scalar RSUScenario.node[14].nic.mac1609_4 throughputMbps 0.13544481799075
scalar RSUScenario.node[14].nic.mac1609_4 throughputControlMbps 0
scalar RSUScenario.node[14].nic.mac1609_4 receivedFramesLowerMsg 30812
scalar RSUScenario.node[14].nic.mac1609_4 receivedBitsLowerPackets 0
scalar RSUScenario.node[14].nic.mac1609_4 receivedBitsLoserWsm 0
scalar RSUScenario.node[14].nic.mac1609_4 packetsNotForMe 0
scalar RSUScenario.node[14].nic.mac1609_4 receivedTotalBits 27082208
scalar RSUScenario.node[14].nic.mac1609_4 collisionsPktNonDecoded 0
scalar RSUScenario.node[14].nic.mac1609_4 chUtilizationCCH 0.219957
scalar RSUScenario.node[14].nic.mac1609_4 chUtilizationSCH1 0
scalar RSUScenario.node[14].nic.mac1609_4 chUtilizationSCH2 0.000233
scalar RSUScenario.node[14].nic.mac1609_4 chUtilizationSCH3 0
scalar RSUScenario.node[14].nic.mac1609_4 chUtilizationSCH4 0
scalar RSUScenario.node[14].nic.mac1609_4 chUtilizationHPPS 0
scalar RSUScenario.node[14].nic.mac1609_4 chUtilizationCRIT_SOL 0
scalar RSUScenario.node[14].nic.mac1609_4 previousSignalQualityCCH 100
scalar RSUScenario.node[14].nic.mac1609_4 previousSignalQualitySCH1 0
scalar RSUScenario.node[14].nic.mac1609_4 previousSignalQualitySCH2 100
scalar RSUScenario.node[14].nic.mac1609_4 previousSignalQualitySCH3 0
scalar RSUScenario.node[14].nic.mac1609_4 previousSignalQualitySCH4 0
scalar RSUScenario.node[14].nic.mac1609_4 chPacketsCCH 1141
scalar RSUScenario.node[14].nic.mac1609_4 chPacketsSCH1 0
scalar RSUScenario.node[14].nic.mac1609_4 chPacketsSCH2 0
scalar RSUScenario.node[14].nic.mac1609_4 chPacketsSCH3 0
scalar RSUScenario.node[14].nic.mac1609_4 chPacketsSCH4 0
scalar RSUScenario.node[14].nic.mac1609_4 ReceivedUnicastPackets 0
scalar RSUScenario.node[14].nic.mac1609_4 ReceivedBroadcasts 30812
scalar RSUScenario.node[14].nic.mac1609_4 SentPackets 1142
scalar RSUScenario.node[14].nic.mac1609_4 SentAcknowledgements 0
scalar RSUScenario.node[14].nic.mac1609_4 SNIRLostPackets 14
scalar RSUScenario.node[14].nic.mac1609_4 RXTXLostPackets 0
scalar RSUScenario.node[14].nic.mac1609_4 TotalLostPackets 14
scalar RSUScenario.node[14].nic.mac1609_4 DroppedPacketsInMac 0
scalar RSUScenario.node[14].nic.mac1609_4 TooLittleTime 0
scalar RSUScenario.node[14].nic.mac1609_4 TimesIntoBackoff 1143
scalar RSUScenario.node[14].nic.mac1609_4 SlotsBackoff 1744
scalar RSUScenario.node[14].nic.mac1609_4 NumInternalContention 0
scalar RSUScenario.node[14].nic.mac1609_4 totalBusyTime 6.378469772616
scalar RSUScenario.node[14].nic.mac1609_4 throughputMetricMac:last 154.09842993351
attr source throughputSignalMac
attr title "throughputMetricMac, last"
scalar RSUScenario.node[14].nic.mac1609_4 throughputMetricMac:count 30812
attr source throughputSignalMac
attr title "throughputMetricMac, count"
scalar RSUScenario.node[14].nic.mac1609_4 throughputMetricMac:sum 2876029.2215242
attr source throughputSignalMac
attr title "throughputMetricMac, sum"
scalar RSUScenario.node[14].nic.mac1609_4 throughputMetricMac:mean 93.341205423998
attr source throughputSignalMac
attr title "throughputMetricMac, mean"
scalar RSUScenario.node[14].veinsmobility startTime 86000
scalar RSUScenario.node[14].veinsmobility totalTime 114000
scalar RSUScenario.node[14].veinsmobility stopTime 200000
scalar RSUScenario.node[14].veinsmobility minSpeed 0.44683507437876
scalar RSUScenario.node[14].veinsmobility maxSpeed 7.1334462066043
scalar RSUScenario.node[14].veinsmobility totalDistance 199.48821822597
scalar RSUScenario.node[14].veinsmobility totalCO2Emission 137.46632826726
scalar RSUScenario.node[15].appl generatedWSMs 1
scalar RSUScenario.node[15].appl receivedWSMs 27
scalar RSUScenario.node[15].appl generatedBSMs 1119
scalar RSUScenario.node[15].appl receivedBSMs 30328
scalar RSUScenario.node[15].appl generatedWSAs 3
scalar RSUScenario.node[15].appl receivedWSAs 47
scalar RSUScenario.node[15].appl beaconInterval 0.1
scalar RSUScenario.node[15].nic.phy80211p busyTime 0.052094000000032
scalar RSUScenario.node[15].nic.phy80211p ncollisions 1
scalar RSUScenario.node[15].nic.mac1609_4 throughputMetricMac 152.04791854391
scalar RSUScenario.node[15].nic.mac1609_4 throughputMbps 0.13364436896572
scalar RSUScenario.node[15].nic.mac1609_4 throughputControlMbps 0
scalar RSUScenario.node[15].nic.mac1609_4 receivedFramesLowerMsg 30402
scalar RSUScenario.node[15].nic.mac1609_4 receivedBitsLowerPackets 0
scalar RSUScenario.node[15].nic.mac1609_4 receivedBitsLoserWsm 0
scalar RSUScenario.node[15].nic.mac1609_4 packetsNotForMe 0
scalar RSUScenario.node[15].nic.mac1609_4 receivedTotalBits 26722208
scalar RSUScenario.node[15].nic.mac1609_4 collisionsPktNonDecoded 0
scalar RSUScenario.node[15].nic.mac1609_4 chUtilizationCCH 0.216162
scalar RSUScenario.node[15].nic.mac1609_4 chUtilizationSCH1 0
scalar RSUScenario.node[15].nic.mac1609_4 chUtilizationSCH2 0.000233
scalar RSUScenario.node[15].nic.mac1609_4 chUtilizationSCH3 0
scalar RSUScenario.node[15].nic.mac1609_4 chUtilizationSCH4 0
scalar RSUScenario.node[15].nic.mac1609_4 chUtilizationHPPS 0
scalar RSUScenario.node[15].nic.mac1609_4 chUtilizationCRIT_SOL 0
scalar RSUScenario.node[15].nic.mac1609_4 previousSignalQualityCCH 100
scalar RSUScenario.node[15].nic.mac1609_4 previousSignalQualitySCH1 0
scalar RSUScenario.node[15].nic.mac1609_4 previousSignalQualitySCH2 100
scalar RSUScenario.node[15].nic.mac1609_4 previousSignalQualitySCH3 0
scalar RSUScenario.node[15].nic.mac1609_4 previousSignalQualitySCH4 0
scalar RSUScenario.node[15].nic.mac1609_4 chPacketsCCH 1122
scalar RSUScenario.node[15].nic.mac1609_4 chPacketsSCH1 0
scalar RSUScenario.node[15].nic.mac1609_4 chPacketsSCH2 0
scalar RSUScenario.node[15].nic.mac1609_4 chPacketsSCH3 0
scalar RSUScenario.node[15].nic.mac1609_4 chPacketsSCH4 0
scalar RSUScenario.node[15].nic.mac1609_4 ReceivedUnicastPackets 0
scalar RSUScenario.node[15].nic.mac1609_4 ReceivedBroadcasts 30402
scalar RSUScenario.node[15].nic.mac1609_4 SentPackets 1123
scalar RSUScenario.node[15].nic.mac1609_4 SentAcknowledgements 0
scalar RSUScenario.node[15].nic.mac1609_4 SNIRLostPackets 13
scalar RSUScenario.node[15].nic.mac1609_4 RXTXLostPackets 1
scalar RSUScenario.node[15].nic.mac1609_4 TotalLostPackets 14
scalar RSUScenario.node[15].nic.mac1609_4 DroppedPacketsInMac 0
scalar RSUScenario.node[15].nic.mac1609_4 TooLittleTime 0
scalar RSUScenario.node[15].nic.mac1609_4 TimesIntoBackoff 1124
scalar RSUScenario.node[15].nic.mac1609_4 SlotsBackoff 1719
scalar RSUScenario.node[15].nic.mac1609_4 NumInternalContention 0
scalar RSUScenario.node[15].nic.mac1609_4 totalBusyTime 6.331451508049
scalar RSUScenario.node[15].nic.mac1609_4 throughputMetricMac:last 152.04791854391
attr source throughputSignalMac
attr title "throughputMetricMac, last"
scalar RSUScenario.node[15].nic.mac1609_4 throughputMetricMac:count 30402
attr source throughputSignalMac
attr title "throughputMetricMac, count"
scalar RSUScenario.node[15].nic.mac1609_4 throughputMetricMac:sum 2796636.0457884
attr source throughputSignalMac
attr title "throughputMetricMac, sum"
scalar RSUScenario.node[15].nic.mac1609_4 throughputMetricMac:mean 91.988554890745
attr source throughputSignalMac
attr title "throughputMetricMac, mean"
scalar RSUScenario.node[15].veinsmobility startTime 88000
scalar RSUScenario.node[15].veinsmobility totalTime 112000
scalar RSUScenario.node[15].veinsmobility stopTime 200000
scalar RSUScenario.node[15].veinsmobility minSpeed 0
scalar RSUScenario.node[15].veinsmobility maxSpeed 6.8203385037629
scalar RSUScenario.node[15].veinsmobility totalDistance 191.1297368111
scalar RSUScenario.node[15].veinsmobility totalCO2Emission 135.19762320358
scalar RSUScenario.node[16].appl generatedWSMs 1
scalar RSUScenario.node[16].appl receivedWSMs 27
scalar RSUScenario.node[16].appl generatedBSMs 1099
scalar RSUScenario.node[16].appl receivedBSMs 29999
scalar RSUScenario.node[16].appl generatedWSAs 2
scalar RSUScenario.node[16].appl receivedWSAs 48
scalar RSUScenario.node[16].appl beaconInterval 0.1
scalar RSUScenario.node[16].nic.phy80211p busyTime 0.052452145454578
scalar RSUScenario.node[16].nic.phy80211p ncollisions 1
scalar RSUScenario.node[16].nic.mac1609_4 throughputMetricMac 150.40750942913
scalar RSUScenario.node[16].nic.mac1609_4 throughputMbps 0.13219680794694
scalar RSUScenario.node[16].nic.mac1609_4 throughputControlMbps 0
scalar RSUScenario.node[16].nic.mac1609_4 receivedFramesLowerMsg 30074
scalar RSUScenario.node[16].nic.mac1609_4 receivedBitsLowerPackets 0
scalar RSUScenario.node[16].nic.mac1609_4 receivedBitsLoserWsm 0
scalar RSUScenario.node[16].nic.mac1609_4 packetsNotForMe 0
scalar RSUScenario.node[16].nic.mac1609_4 receivedTotalBits 26432768
scalar RSUScenario.node[16].nic.mac1609_4 collisionsPktNonDecoded 0
scalar RSUScenario.node[16].nic.mac1609_4 chUtilizationCCH 0.212237
scalar RSUScenario.node[16].nic.mac1609_4 chUtilizationSCH1 0
scalar RSUScenario.node[16].nic.mac1609_4 chUtilizationSCH2 0.000233
scalar RSUScenario.node[16].nic.mac1609_4 chUtilizationSCH3 0
scalar RSUScenario.node[16].nic.mac1609_4 chUtilizationSCH4 0
scalar RSUScenario.node[16].nic.mac1609_4 chUtilizationHPPS 0
scalar RSUScenario.node[16].nic.mac1609_4 chUtilizationCRIT_SOL 0
scalar RSUScenario.node[16].nic.mac1609_4 previousSignalQualityCCH 100
scalar RSUScenario.node[16].nic.mac1609_4 previousSignalQualitySCH1 0
scalar RSUScenario.node[16].nic.mac1609_4 previousSignalQualitySCH2 100
scalar RSUScenario.node[16].nic.mac1609_4 previousSignalQualitySCH3 0
scalar RSUScenario.node[16].nic.mac1609_4 previousSignalQualitySCH4 0
scalar RSUScenario.node[16].nic.mac1609_4 chPacketsCCH 1101
scalar RSUScenario.node[16].nic.mac1609_4 chPacketsSCH1 0
scalar RSUScenario.node[16].nic.mac1609_4 chPacketsSCH2 0
scalar RSUScenario.node[16].nic.mac1609_4 chPacketsSCH3 0
scalar RSUScenario.node[16].nic.mac1609_4 chPacketsSCH4 0
scalar RSUScenario.node[16].nic.mac1609_4 ReceivedUnicastPackets 0
scalar RSUScenario.node[16].nic.mac1609_4 ReceivedBroadcasts 30074
scalar RSUScenario.node[16].nic.mac1609_4 SentPackets 1102
scalar RSUScenario.node[16].nic.mac1609_4 SentAcknowledgements 0
scalar RSUScenario.node[16].nic.mac1609_4 SNIRLostPackets 4
scalar RSUScenario.node[16].nic.mac1609_4 RXTXLostPackets 0
scalar RSUScenario.node[16].nic.mac1609_4 TotalLostPackets 4
scalar RSUScenario.node[16].nic.mac1609_4 DroppedPacketsInMac 0
scalar RSUScenario.node[16].nic.mac1609_4 TooLittleTime 0
scalar RSUScenario.node[16].nic.mac1609_4 TimesIntoBackoff 1103
scalar RSUScenario.node[16].nic.mac1609_4 SlotsBackoff 1652
scalar RSUScenario.node[16].nic.mac1609_4 NumInternalContention 0
scalar RSUScenario.node[16].nic.mac1609_4 totalBusyTime 6.085808911246
scalar RSUScenario.node[16].nic.mac1609_4 throughputMetricMac:last 150.40750942913
attr source throughputSignalMac
attr title "throughputMetricMac, last"
scalar RSUScenario.node[16].nic.mac1609_4 throughputMetricMac:count 30074
attr source throughputSignalMac
attr title "throughputMetricMac, count"
scalar RSUScenario.node[16].nic.mac1609_4 throughputMetricMac:sum 2730074.3070533
attr source throughputSignalMac
attr title "throughputMetricMac, sum"
scalar RSUScenario.node[16].nic.mac1609_4 throughputMetricMac:mean 90.778556462502
attr source throughputSignalMac
attr title "throughputMetricMac, mean"
scalar RSUScenario.node[16].veinsmobility startTime 90000
scalar RSUScenario.node[16].veinsmobility totalTime 110000
scalar RSUScenario.node[16].veinsmobility stopTime 200000
scalar RSUScenario.node[16].veinsmobility minSpeed 0.44014457971905
scalar RSUScenario.node[16].veinsmobility maxSpeed 6.3011961638623
scalar RSUScenario.node[16].veinsmobility totalDistance 182.83228921298
scalar RSUScenario.node[16].veinsmobility totalCO2Emission 131.94726579661
scalar RSUScenario.node[17].appl generatedWSMs 1
scalar RSUScenario.node[17].appl receivedWSMs 27
scalar RSUScenario.node[17].appl generatedBSMs 1079
scalar RSUScenario.node[17].appl receivedBSMs 29700
scalar RSUScenario.node[17].appl generatedWSAs 2
scalar RSUScenario.node[17].appl receivedWSAs 48
scalar RSUScenario.node[17].appl beaconInterval 0.1
scalar RSUScenario.node[17].nic.phy80211p busyTime 0.05288977777781
scalar RSUScenario.node[17].nic.phy80211p ncollisions 1
scalar RSUScenario.node[17].nic.mac1609_4 throughputMetricMac 148.91213648546
scalar RSUScenario.node[17].nic.mac1609_4 throughputMbps 0.13088087975654
scalar RSUScenario.node[17].nic.mac1609_4 throughputControlMbps 0
scalar RSUScenario.node[17].nic.mac1609_4 receivedFramesLowerMsg 29775
scalar RSUScenario.node[17].nic.mac1609_4 receivedBitsLowerPackets 0
scalar RSUScenario.node[17].nic.mac1609_4 receivedBitsLoserWsm 0
scalar RSUScenario.node[17].nic.mac1609_4 packetsNotForMe 0
scalar RSUScenario.node[17].nic.mac1609_4 receivedTotalBits 26169648
scalar RSUScenario.node[17].nic.mac1609_4 collisionsPktNonDecoded 0
scalar RSUScenario.node[17].nic.mac1609_4 chUtilizationCCH 0.208377
scalar RSUScenario.node[17].nic.mac1609_4 chUtilizationSCH1 0
scalar RSUScenario.node[17].nic.mac1609_4 chUtilizationSCH2 0.000233
scalar RSUScenario.node[17].nic.mac1609_4 chUtilizationSCH3 0
scalar RSUScenario.node[17].nic.mac1609_4 chUtilizationSCH4 0
scalar RSUScenario.node[17].nic.mac1609_4 chUtilizationHPPS 0
scalar RSUScenario.node[17].nic.mac1609_4 chUtilizationCRIT_SOL 0
scalar RSUScenario.node[17].nic.mac1609_4 previousSignalQualityCCH 100
scalar RSUScenario.node[17].nic.mac1609_4 previousSignalQualitySCH1 0
scalar RSUScenario.node[17].nic.mac1609_4 previousSignalQualitySCH2 100
scalar RSUScenario.node[17].nic.mac1609_4 previousSignalQualitySCH3 0
scalar RSUScenario.node[17].nic.mac1609_4 previousSignalQualitySCH4 0
scalar RSUScenario.node[17].nic.mac1609_4 chPacketsCCH 1081
scalar RSUScenario.node[17].nic.mac1609_4 chPacketsSCH1 0
scalar RSUScenario.node[17].nic.mac1609_4 chPacketsSCH2 1
scalar RSUScenario.node[17].nic.mac1609_4 chPacketsSCH3 0
scalar RSUScenario.node[17].nic.mac1609_4 chPacketsSCH4 0
scalar RSUScenario.node[17].nic.mac1609_4 ReceivedUnicastPackets 0
scalar RSUScenario.node[17].nic.mac1609_4 ReceivedBroadcasts 29775
scalar RSUScenario.node[17].nic.mac1609_4 SentPackets 1082
scalar RSUScenario.node[17].nic.mac1609_4 SentAcknowledgements 0
scalar RSUScenario.node[17].nic.mac1609_4 SNIRLostPackets 3
scalar RSUScenario.node[17].nic.mac1609_4 RXTXLostPackets 1
scalar RSUScenario.node[17].nic.mac1609_4 TotalLostPackets 4
scalar RSUScenario.node[17].nic.mac1609_4 DroppedPacketsInMac 0
scalar RSUScenario.node[17].nic.mac1609_4 TooLittleTime 0
scalar RSUScenario.node[17].nic.mac1609_4 TimesIntoBackoff 1083
scalar RSUScenario.node[17].nic.mac1609_4 SlotsBackoff 1661
scalar RSUScenario.node[17].nic.mac1609_4 NumInternalContention 0
scalar RSUScenario.node[17].nic.mac1609_4 totalBusyTime 6.158649390093
scalar RSUScenario.node[17].nic.mac1609_4 throughputMetricMac:last 148.91213648546
attr source throughputSignalMac
attr title "throughputMetricMac, last"
scalar RSUScenario.node[17].nic.mac1609_4 throughputMetricMac:count 29775
attr source throughputSignalMac
attr title "throughputMetricMac, count"
scalar RSUScenario.node[17].nic.mac1609_4 throughputMetricMac:sum 2668461.5273428
attr source throughputSignalMac
attr title "throughputMetricMac, sum"
scalar RSUScenario.node[17].nic.mac1609_4 throughputMetricMac:mean 89.620874134099
attr source throughputSignalMac
attr title "throughputMetricMac, mean"
scalar RSUScenario.node[17].veinsmobility startTime 92000
scalar RSUScenario.node[17].veinsmobility totalTime 108000
scalar RSUScenario.node[17].veinsmobility stopTime 200000
scalar RSUScenario.node[17].veinsmobility minSpeed 0.2383977351168
scalar RSUScenario.node[17].veinsmobility maxSpeed 5.4657378624806
scalar RSUScenario.node[17].veinsmobility totalDistance 174.82840037133
scalar RSUScenario.node[17].veinsmobility totalCO2Emission 129.3842554114
scalar RSUScenario.node[18].appl generatedWSMs 1
scalar RSUScenario.node[18].appl receivedWSMs 27
scalar RSUScenario.node[18].appl generatedBSMs 1059
scalar RSUScenario.node[18].appl receivedBSMs 29371
scalar RSUScenario.node[18].appl generatedWSAs 2
scalar RSUScenario.node[18].appl receivedWSAs 49
scalar RSUScenario.node[18].appl beaconInterval 0.1
scalar RSUScenario.node[18].nic.phy80211p busyTime 0.053293962264183
scalar RSUScenario.node[18].nic.phy80211p ncollisions 0
scalar RSUScenario.node[18].nic.mac1609_4 throughputMetricMac 147.27172737309
scalar RSUScenario.node[18].nic.mac1609_4 throughputMbps 0.12943331873989
scalar RSUScenario.node[18].nic.mac1609_4 throughputControlMbps 0
scalar RSUScenario.node[18].nic.mac1609_4 receivedFramesLowerMsg 29447
scalar RSUScenario.node[18].nic.mac1609_4 receivedBitsLowerPackets 0
scalar RSUScenario.node[18].nic.mac1609_4 receivedBitsLoserWsm 0
scalar RSUScenario.node[18].nic.mac1609_4 packetsNotForMe 0
scalar RSUScenario.node[18].nic.mac1609_4 receivedTotalBits 25880208
scalar RSUScenario.node[18].nic.mac1609_4 collisionsPktNonDecoded 0
scalar RSUScenario.node[18].nic.mac1609_4 chUtilizationCCH 0.204517
scalar RSUScenario.node[18].nic.mac1609_4 chUtilizationSCH1 0
scalar RSUScenario.node[18].nic.mac1609_4 chUtilizationSCH2 0.000233
scalar RSUScenario.node[18].nic.mac1609_4 chUtilizationSCH3 0
scalar RSUScenario.node[18].nic.mac1609_4 chUtilizationSCH4 0
scalar RSUScenario.node[18].nic.mac1609_4 chUtilizationHPPS 0
scalar RSUScenario.node[18].nic.mac1609_4 chUtilizationCRIT_SOL 0
scalar RSUScenario.node[18].nic.mac1609_4 previousSignalQualityCCH 100
scalar RSUScenario.node[18].nic.mac1609_4 previousSignalQualitySCH1 0
scalar RSUScenario.node[18].nic.mac1609_4 previousSignalQualitySCH2 100
scalar RSUScenario.node[18].nic.mac1609_4 previousSignalQualitySCH3 0
scalar RSUScenario.node[18].nic.mac1609_4 previousSignalQualitySCH4 0
scalar RSUScenario.node[18].nic.mac1609_4 chPacketsCCH 1061
scalar RSUScenario.node[18].nic.mac1609_4 chPacketsSCH1 0
scalar RSUScenario.node[18].nic.mac1609_4 chPacketsSCH2 1
scalar RSUScenario.node[18].nic.mac1609_4 chPacketsSCH3 0
scalar RSUScenario.node[18].nic.mac1609_4 chPacketsSCH4 0
scalar RSUScenario.node[18].nic.mac1609_4 ReceivedUnicastPackets 0
scalar RSUScenario.node[18].nic.mac1609_4 ReceivedBroadcasts 29447
scalar RSUScenario.node[18].nic.mac1609_4 SentPackets 1062
scalar RSUScenario.node[18].nic.mac1609_4 SentAcknowledgements 0
scalar RSUScenario.node[18].nic.mac1609_4 SNIRLostPackets 3
scalar RSUScenario.node[18].nic.mac1609_4 RXTXLostPackets 0
scalar RSUScenario.node[18].nic.mac1609_4 TotalLostPackets 3
scalar RSUScenario.node[18].nic.mac1609_4 DroppedPacketsInMac 0
scalar RSUScenario.node[18].nic.mac1609_4 TooLittleTime 0
scalar RSUScenario.node[18].nic.mac1609_4 TimesIntoBackoff 1062
scalar RSUScenario.node[18].nic.mac1609_4 SlotsBackoff 1625
scalar RSUScenario.node[18].nic.mac1609_4 NumInternalContention 0
scalar RSUScenario.node[18].nic.mac1609_4 totalBusyTime 6.023056973093
scalar RSUScenario.node[18].nic.mac1609_4 throughputMetricMac:last 147.27172737309
attr source throughputSignalMac
attr title "throughputMetricMac, last"
scalar RSUScenario.node[18].nic.mac1609_4 throughputMetricMac:count 29447
attr source throughputSignalMac
attr title "throughputMetricMac, count"
scalar RSUScenario.node[18].nic.mac1609_4 throughputMetricMac:sum 2602426.0917331
attr source throughputSignalMac
attr title "throughputMetricMac, sum"
scalar RSUScenario.node[18].nic.mac1609_4 throughputMetricMac:mean 88.376611937825
attr source throughputSignalMac
attr title "throughputMetricMac, mean"
scalar RSUScenario.node[18].veinsmobility startTime 94000
scalar RSUScenario.node[18].veinsmobility totalTime 106000
scalar RSUScenario.node[18].veinsmobility stopTime 200000
scalar RSUScenario.node[18].veinsmobility minSpeed 0.42773956329504
scalar RSUScenario.node[18].veinsmobility maxSpeed 5.009624306905
scalar RSUScenario.node[18].veinsmobility totalDistance 166.98121524166
scalar RSUScenario.node[18].veinsmobility totalCO2Emission 125.44722950652
scalar RSUScenario.node[19].appl generatedWSMs 1
scalar RSUScenario.node[19].appl receivedWSMs 26
scalar RSUScenario.node[19].appl generatedBSMs 1039
scalar RSUScenario.node[19].appl receivedBSMs 29032
scalar RSUScenario.node[19].appl generatedWSAs 2
scalar RSUScenario.node[19].appl receivedWSAs 49
scalar RSUScenario.node[19].appl beaconInterval 0.1
scalar RSUScenario.node[19].nic.phy80211p busyTime 0.053693000000032
scalar RSUScenario.node[19].nic.phy80211p ncollisions 1
scalar RSUScenario.node[19].nic.mac1609_4 throughputMetricMac 145.57130329721
scalar RSUScenario.node[19].nic.mac1609_4 throughputMbps 0.12793582527375
scalar RSUScenario.node[19].nic.mac1609_4 throughputControlMbps 0
scalar RSUScenario.node[19].nic.mac1609_4 receivedFramesLowerMsg 29107
scalar RSUScenario.node[19].nic.mac1609_4 receivedBitsLowerPackets 0
scalar RSUScenario.node[19].nic.mac1609_4 receivedBitsLoserWsm 0
scalar RSUScenario.node[19].nic.mac1609_4 packetsNotForMe 0
scalar RSUScenario.node[19].nic.mac1609_4 receivedTotalBits 25580784
scalar RSUScenario.node[19].nic.mac1609_4 collisionsPktNonDecoded 0
scalar RSUScenario.node[19].nic.mac1609_4 chUtilizationCCH 0.200657
scalar RSUScenario.node[19].nic.mac1609_4 chUtilizationSCH1 0
scalar RSUScenario.node[19].nic.mac1609_4 chUtilizationSCH2 0.000233
scalar RSUScenario.node[19].nic.mac1609_4 chUtilizationSCH3 0
scalar RSUScenario.node[19].nic.mac1609_4 chUtilizationSCH4 0
scalar RSUScenario.node[19].nic.mac1609_4 chUtilizationHPPS 0
scalar RSUScenario.node[19].nic.mac1609_4 chUtilizationCRIT_SOL 0
scalar RSUScenario.node[19].nic.mac1609_4 previousSignalQualityCCH 100
scalar RSUScenario.node[19].nic.mac1609_4 previousSignalQualitySCH1 0
scalar RSUScenario.node[19].nic.mac1609_4 previousSignalQualitySCH2 100
scalar RSUScenario.node[19].nic.mac1609_4 previousSignalQualitySCH3 0
scalar RSUScenario.node[19].nic.mac1609_4 previousSignalQualitySCH4 0
scalar RSUScenario.node[19].nic.mac1609_4 chPacketsCCH 1041
scalar RSUScenario.node[19].nic.mac1609_4 chPacketsSCH1 0
scalar RSUScenario.node[19].nic.mac1609_4 chPacketsSCH2 0
scalar RSUScenario.node[19].nic.mac1609_4 chPacketsSCH3 0
scalar RSUScenario.node[19].nic.mac1609_4 chPacketsSCH4 0
scalar RSUScenario.node[19].nic.mac1609_4 ReceivedUnicastPackets 0
scalar RSUScenario.node[19].nic.mac1609_4 ReceivedBroadcasts 29107
scalar RSUScenario.node[19].nic.mac1609_4 SentPackets 1042
scalar RSUScenario.node[19].nic.mac1609_4 SentAcknowledgements 0
scalar RSUScenario.node[19].nic.mac1609_4 SNIRLostPackets 4
scalar RSUScenario.node[19].nic.mac1609_4 RXTXLostPackets 0
scalar RSUScenario.node[19].nic.mac1609_4 TotalLostPackets 4
scalar RSUScenario.node[19].nic.mac1609_4 DroppedPacketsInMac 0
scalar RSUScenario.node[19].nic.mac1609_4 TooLittleTime 0
scalar RSUScenario.node[19].nic.mac1609_4 TimesIntoBackoff 1952
scalar RSUScenario.node[19].nic.mac1609_4 SlotsBackoff 2856
scalar RSUScenario.node[19].nic.mac1609_4 NumInternalContention 0
scalar RSUScenario.node[19].nic.mac1609_4 totalBusyTime 5.895302788334
scalar RSUScenario.node[19].nic.mac1609_4 throughputMetricMac:last 145.57130329721
attr source throughputSignalMac
attr title "throughputMetricMac, last"
scalar RSUScenario.node[19].nic.mac1609_4 throughputMetricMac:count 29107
attr source throughputSignalMac
attr title "throughputMetricMac, count"
scalar RSUScenario.node[19].nic.mac1609_4 throughputMetricMac:sum 2534743.2141044
attr source throughputSignalMac
attr title "throughputMetricMac, sum"
scalar RSUScenario.node[19].nic.mac1609_4 throughputMetricMac:mean 87.083629852075
attr source throughputSignalMac
attr title "throughputMetricMac, mean"
scalar RSUScenario.node[19].veinsmobility startTime 96000
scalar RSUScenario.node[19].veinsmobility totalTime 104000
scalar RSUScenario.node[19].veinsmobility stopTime 200000
scalar RSUScenario.node[19].veinsmobility minSpeed 0.43514961487963
scalar RSUScenario.node[19].veinsmobility maxSpeed 4.6532842827868
scalar RSUScenario.node[19].veinsmobility totalDistance 159.6350757384
scalar RSUScenario.node[19].veinsmobility totalCO2Emission 123.1610892824
scalar RSUScenario.node[20].appl generatedWSMs 3
scalar RSUScenario.node[20].appl receivedWSMs 23
scalar RSUScenario.node[20].appl generatedBSMs 1019
scalar RSUScenario.node[20].appl receivedBSMs 28653
scalar RSUScenario.node[20].appl generatedWSAs 3
scalar RSUScenario.node[20].appl receivedWSAs 48
scalar RSUScenario.node[20].appl beaconInterval 0.1
scalar RSUScenario.node[20].nic.phy80211p busyTime 0.054027215686307
scalar RSUScenario.node[20].nic.phy80211p ncollisions 2
scalar RSUScenario.node[20].nic.mac1609_4 throughputMetricMac 143.65582559122
scalar RSUScenario.node[20].nic.mac1609_4 throughputMbps 0.12625084505215
scalar RSUScenario.node[20].nic.mac1609_4 throughputControlMbps 0
scalar RSUScenario.node[20].nic.mac1609_4 receivedFramesLowerMsg 28724
scalar RSUScenario.node[20].nic.mac1609_4 receivedBitsLowerPackets 0
scalar RSUScenario.node[20].nic.mac1609_4 receivedBitsLoserWsm 0
scalar RSUScenario.node[20].nic.mac1609_4 packetsNotForMe 0
scalar RSUScenario.node[20].nic.mac1609_4 receivedTotalBits 25243872
scalar RSUScenario.node[20].nic.mac1609_4 collisionsPktNonDecoded 0
scalar RSUScenario.node[20].nic.mac1609_4 chUtilizationCCH 0.196862
scalar RSUScenario.node[20].nic.mac1609_4 chUtilizationSCH1 0
scalar RSUScenario.node[20].nic.mac1609_4 chUtilizationSCH2 0.000233
scalar RSUScenario.node[20].nic.mac1609_4 chUtilizationSCH3 0.000466
scalar RSUScenario.node[20].nic.mac1609_4 chUtilizationSCH4 0
scalar RSUScenario.node[20].nic.mac1609_4 chUtilizationHPPS 0
scalar RSUScenario.node[20].nic.mac1609_4 chUtilizationCRIT_SOL 0
scalar RSUScenario.node[20].nic.mac1609_4 previousSignalQualityCCH 100
scalar RSUScenario.node[20].nic.mac1609_4 previousSignalQualitySCH1 0
scalar RSUScenario.node[20].nic.mac1609_4 previousSignalQualitySCH2 100
scalar RSUScenario.node[20].nic.mac1609_4 previousSignalQualitySCH3 100
scalar RSUScenario.node[20].nic.mac1609_4 previousSignalQualitySCH4 0
scalar RSUScenario.node[20].nic.mac1609_4 chPacketsCCH 1022
scalar RSUScenario.node[20].nic.mac1609_4 chPacketsSCH1 0
scalar RSUScenario.node[20].nic.mac1609_4 chPacketsSCH2 1
scalar RSUScenario.node[20].nic.mac1609_4 chPacketsSCH3 2
scalar RSUScenario.node[20].nic.mac1609_4 chPacketsSCH4 0
scalar RSUScenario.node[20].nic.mac1609_4 ReceivedUnicastPackets 0
scalar RSUScenario.node[20].nic.mac1609_4 ReceivedBroadcasts 28724
scalar RSUScenario.node[20].nic.mac1609_4 SentPackets 1025
scalar RSUScenario.node[20].nic.mac1609_4 SentAcknowledgements 0
scalar RSUScenario.node[20].nic.mac1609_4 SNIRLostPackets 5
scalar RSUScenario.node[20].nic.mac1609_4 RXTXLostPackets 0
scalar RSUScenario.node[20].nic.mac1609_4 TotalLostPackets 5
scalar RSUScenario.node[20].nic.mac1609_4 DroppedPacketsInMac 0
scalar RSUScenario.node[20].nic.mac1609_4 TooLittleTime 0
scalar RSUScenario.node[20].nic.mac1609_4 TimesIntoBackoff 1025
scalar RSUScenario.node[20].nic.mac1609_4 SlotsBackoff 1525
scalar RSUScenario.node[20].nic.mac1609_4 NumInternalContention 0
scalar RSUScenario.node[20].nic.mac1609_4 totalBusyTime 5.987832324935
scalar RSUScenario.node[20].nic.mac1609_4 throughputMetricMac:last 143.65582559122
attr source throughputSignalMac
attr title "throughputMetricMac, last"
scalar RSUScenario.node[20].nic.mac1609_4 throughputMetricMac:count 28724
attr source throughputSignalMac
attr title "throughputMetricMac, count"
scalar RSUScenario.node[20].nic.mac1609_4 throughputMetricMac:sum 2460413.6371369
attr source throughputSignalMac
attr title "throughputMetricMac, sum"
scalar RSUScenario.node[20].nic.mac1609_4 throughputMetricMac:mean 85.657068553715
attr source throughputSignalMac
attr title "throughputMetricMac, mean"
scalar RSUScenario.node[20].veinsmobility startTime 98000
scalar RSUScenario.node[20].veinsmobility totalTime 102000
scalar RSUScenario.node[20].veinsmobility stopTime 200000
scalar RSUScenario.node[20].veinsmobility minSpeed 0
scalar RSUScenario.node[20].veinsmobility maxSpeed 9.8554973309629
scalar RSUScenario.node[20].veinsmobility totalDistance 152.42363900794
scalar RSUScenario.node[20].veinsmobility totalCO2Emission 128.61992606896
scalar RSUScenario.node[21].appl generatedWSMs 3
scalar RSUScenario.node[21].appl receivedWSMs 24
scalar RSUScenario.node[21].appl generatedBSMs 989
scalar RSUScenario.node[21].appl receivedBSMs 28084
scalar RSUScenario.node[21].appl generatedWSAs 2
scalar RSUScenario.node[21].appl receivedWSAs 49
scalar RSUScenario.node[21].appl beaconInterval 0.1
scalar RSUScenario.node[21].nic.phy80211p busyTime 0.054561535353568
scalar RSUScenario.node[21].nic.phy80211p ncollisions 1
scalar RSUScenario.node[21].nic.mac1609_4 throughputMetricMac 140.82011839429
scalar RSUScenario.node[21].nic.mac1609_4 throughputMbps 0.12375254200047
scalar RSUScenario.node[21].nic.mac1609_4 throughputControlMbps 0
scalar RSUScenario.node[21].nic.mac1609_4 receivedFramesLowerMsg 28157
scalar RSUScenario.node[21].nic.mac1609_4 receivedBitsLowerPackets 0
scalar RSUScenario.node[21].nic.mac1609_4 receivedBitsLoserWsm 0
scalar RSUScenario.node[21].nic.mac1609_4 packetsNotForMe 0
scalar RSUScenario.node[21].nic.mac1609_4 receivedTotalBits 24744336
scalar RSUScenario.node[21].nic.mac1609_4 collisionsPktNonDecoded 0
scalar RSUScenario.node[21].nic.mac1609_4 chUtilizationCCH 0.191007
scalar RSUScenario.node[21].nic.mac1609_4 chUtilizationSCH1 0
scalar RSUScenario.node[21].nic.mac1609_4 chUtilizationSCH2 0.000233
scalar RSUScenario.node[21].nic.mac1609_4 chUtilizationSCH3 0.000466
scalar RSUScenario.node[21].nic.mac1609_4 chUtilizationSCH4 0
scalar RSUScenario.node[21].nic.mac1609_4 chUtilizationHPPS 0
scalar RSUScenario.node[21].nic.mac1609_4 chUtilizationCRIT_SOL 0
scalar RSUScenario.node[21].nic.mac1609_4 previousSignalQualityCCH 100
scalar RSUScenario.node[21].nic.mac1609_4 previousSignalQualitySCH1 0
scalar RSUScenario.node[21].nic.mac1609_4 previousSignalQualitySCH2 100
scalar RSUScenario.node[21].nic.mac1609_4 previousSignalQualitySCH3 100
scalar RSUScenario.node[21].nic.mac1609_4 previousSignalQualitySCH4 0
scalar RSUScenario.node[21].nic.mac1609_4 chPacketsCCH 991
scalar RSUScenario.node[21].nic.mac1609_4 chPacketsSCH1 0
scalar RSUScenario.node[21].nic.mac1609_4 chPacketsSCH2 1
scalar RSUScenario.node[21].nic.mac1609_4 chPacketsSCH3 2
scalar RSUScenario.node[21].nic.mac1609_4 chPacketsSCH4 0
scalar RSUScenario.node[21].nic.mac1609_4 ReceivedUnicastPackets 0
scalar RSUScenario.node[21].nic.mac1609_4 ReceivedBroadcasts 28157
scalar RSUScenario.node[21].nic.mac1609_4 SentPackets 994
scalar RSUScenario.node[21].nic.mac1609_4 SentAcknowledgements 0
scalar RSUScenario.node[21].nic.mac1609_4 SNIRLostPackets 4
scalar RSUScenario.node[21].nic.mac1609_4 RXTXLostPackets 0
scalar RSUScenario.node[21].nic.mac1609_4 TotalLostPackets 4
scalar RSUScenario.node[21].nic.mac1609_4 DroppedPacketsInMac 0
scalar RSUScenario.node[21].nic.mac1609_4 TooLittleTime 0
scalar RSUScenario.node[21].nic.mac1609_4 TimesIntoBackoff 994
scalar RSUScenario.node[21].nic.mac1609_4 SlotsBackoff 1545
scalar RSUScenario.node[21].nic.mac1609_4 NumInternalContention 0
scalar RSUScenario.node[21].nic.mac1609_4 totalBusyTime 5.723567893481
scalar RSUScenario.node[21].nic.mac1609_4 throughputMetricMac:last 140.82011839429
attr source throughputSignalMac
attr title "throughputMetricMac, last"
scalar RSUScenario.node[21].nic.mac1609_4 throughputMetricMac:count 28157
attr source throughputSignalMac
attr title "throughputMetricMac, count"
scalar RSUScenario.node[21].nic.mac1609_4 throughputMetricMac:sum 2352338.009832
attr source throughputSignalMac
attr title "throughputMetricMac, sum"
scalar RSUScenario.node[21].nic.mac1609_4 throughputMetricMac:mean 83.543630707534
attr source throughputSignalMac
attr title "throughputMetricMac, mean"
scalar RSUScenario.node[21].veinsmobility startTime 101000
scalar RSUScenario.node[21].veinsmobility totalTime 99000
scalar RSUScenario.node[21].veinsmobility stopTime 200000
scalar RSUScenario.node[21].veinsmobility minSpeed 0
scalar RSUScenario.node[21].veinsmobility maxSpeed 8.5447925259565
scalar RSUScenario.node[21].veinsmobility totalDistance 144.34916147203
scalar RSUScenario.node[21].veinsmobility totalCO2Emission 118.86766946719
scalar RSUScenario.node[22].appl generatedWSMs 1
scalar RSUScenario.node[22].appl receivedWSMs 27
scalar RSUScenario.node[22].appl generatedBSMs 969
scalar RSUScenario.node[22].appl receivedBSMs 27695
scalar RSUScenario.node[22].appl generatedWSAs 3
scalar RSUScenario.node[22].appl receivedWSAs 48
scalar RSUScenario.node[22].appl beaconInterval 0.1
scalar RSUScenario.node[22].nic.phy80211p busyTime 0.054918268041269
scalar RSUScenario.node[22].nic.phy80211p ncollisions 0
scalar RSUScenario.node[22].nic.mac1609_4 throughputMetricMac 138.88463569932
scalar RSUScenario.node[22].nic.mac1609_4 throughputMbps 0.12205667906484
scalar RSUScenario.node[22].nic.mac1609_4 throughputControlMbps 0
scalar RSUScenario.node[22].nic.mac1609_4 receivedFramesLowerMsg 27770
scalar RSUScenario.node[22].nic.mac1609_4 receivedBitsLowerPackets 0
scalar RSUScenario.node[22].nic.mac1609_4 receivedBitsLoserWsm 0
scalar RSUScenario.node[22].nic.mac1609_4 packetsNotForMe 0
scalar RSUScenario.node[22].nic.mac1609_4 receivedTotalBits 24405248
scalar RSUScenario.node[22].nic.mac1609_4 collisionsPktNonDecoded 0
scalar RSUScenario.node[22].nic.mac1609_4 chUtilizationCCH 0.187212
scalar RSUScenario.node[22].nic.mac1609_4 chUtilizationSCH1 0
scalar RSUScenario.node[22].nic.mac1609_4 chUtilizationSCH2 0.000233
scalar RSUScenario.node[22].nic.mac1609_4 chUtilizationSCH3 0
scalar RSUScenario.node[22].nic.mac1609_4 chUtilizationSCH4 0
scalar RSUScenario.node[22].nic.mac1609_4 chUtilizationHPPS 0
scalar RSUScenario.node[22].nic.mac1609_4 chUtilizationCRIT_SOL 0
scalar RSUScenario.node[22].nic.mac1609_4 previousSignalQualityCCH 100
scalar RSUScenario.node[22].nic.mac1609_4 previousSignalQualitySCH1 0
scalar RSUScenario.node[22].nic.mac1609_4 previousSignalQualitySCH2 100
scalar RSUScenario.node[22].nic.mac1609_4 previousSignalQualitySCH3 0
scalar RSUScenario.node[22].nic.mac1609_4 previousSignalQualitySCH4 0
scalar RSUScenario.node[22].nic.mac1609_4 chPacketsCCH 972
scalar RSUScenario.node[22].nic.mac1609_4 chPacketsSCH1 0
scalar RSUScenario.node[22].nic.mac1609_4 chPacketsSCH2 0
scalar RSUScenario.node[22].nic.mac1609_4 chPacketsSCH3 0
scalar RSUScenario.node[22].nic.mac1609_4 chPacketsSCH4 0
scalar RSUScenario.node[22].nic.mac1609_4 ReceivedUnicastPackets 0
scalar RSUScenario.node[22].nic.mac1609_4 ReceivedBroadcasts 27770
scalar RSUScenario.node[22].nic.mac1609_4 SentPackets 973
scalar RSUScenario.node[22].nic.mac1609_4 SentAcknowledgements 0
scalar RSUScenario.node[22].nic.mac1609_4 SNIRLostPackets 2
scalar RSUScenario.node[22].nic.mac1609_4 RXTXLostPackets 1
scalar RSUScenario.node[22].nic.mac1609_4 TotalLostPackets 3
scalar RSUScenario.node[22].nic.mac1609_4 DroppedPacketsInMac 0
scalar RSUScenario.node[22].nic.mac1609_4 TooLittleTime 0
scalar RSUScenario.node[22].nic.mac1609_4 TimesIntoBackoff 974
scalar RSUScenario.node[22].nic.mac1609_4 SlotsBackoff 1449
scalar RSUScenario.node[22].nic.mac1609_4 NumInternalContention 0
scalar RSUScenario.node[22].nic.mac1609_4 totalBusyTime 5.726782428083
scalar RSUScenario.node[22].nic.mac1609_4 throughputMetricMac:last 138.88463569932
attr source throughputSignalMac
attr title "throughputMetricMac, last"
scalar RSUScenario.node[22].nic.mac1609_4 throughputMetricMac:count 27770
attr source throughputSignalMac
attr title "throughputMetricMac, count"
scalar RSUScenario.node[22].nic.mac1609_4 throughputMetricMac:sum 2280023.7314784
attr source throughputSignalMac
attr title "throughputMetricMac, sum"
scalar RSUScenario.node[22].nic.mac1609_4 throughputMetricMac:mean 82.103843409377
attr source throughputSignalMac
attr title "throughputMetricMac, mean"
scalar RSUScenario.node[22].veinsmobility startTime 103000
scalar RSUScenario.node[22].veinsmobility totalTime 97000
scalar RSUScenario.node[22].veinsmobility stopTime 200000
scalar RSUScenario.node[22].veinsmobility minSpeed 0
scalar RSUScenario.node[22].veinsmobility maxSpeed 7.6265488707437
scalar RSUScenario.node[22].veinsmobility totalDistance 137.68261085865
scalar RSUScenario.node[22].veinsmobility totalCO2Emission 115.25284542644
scalar RSUScenario.node[23].appl generatedWSMs 1
scalar RSUScenario.node[23].appl receivedWSMs 26
scalar RSUScenario.node[23].appl generatedBSMs 939
scalar RSUScenario.node[23].appl receivedBSMs 27076
scalar RSUScenario.node[23].appl generatedWSAs 2
scalar RSUScenario.node[23].appl receivedWSAs 49
scalar RSUScenario.node[23].appl beaconInterval 0.1
scalar RSUScenario.node[23].nic.phy80211p busyTime 0.055407319148968
scalar RSUScenario.node[23].nic.phy80211p ncollisions 1
scalar RSUScenario.node[23].nic.mac1609_4 throughputMetricMac 135.78886364335
scalar RSUScenario.node[23].nic.mac1609_4 throughputMbps 0.11932727837844
scalar RSUScenario.node[23].nic.mac1609_4 throughputControlMbps 0
scalar RSUScenario.node[23].nic.mac1609_4 receivedFramesLowerMsg 27151
scalar RSUScenario.node[23].nic.mac1609_4 receivedBitsLowerPackets 0
scalar RSUScenario.node[23].nic.mac1609_4 receivedBitsLoserWsm 0
scalar RSUScenario.node[23].nic.mac1609_4 packetsNotForMe 0
scalar RSUScenario.node[23].nic.mac1609_4 receivedTotalBits 23859504
scalar RSUScenario.node[23].nic.mac1609_4 collisionsPktNonDecoded 0
scalar RSUScenario.node[23].nic.mac1609_4 chUtilizationCCH 0.181357
scalar RSUScenario.node[23].nic.mac1609_4 chUtilizationSCH1 0
scalar RSUScenario.node[23].nic.mac1609_4 chUtilizationSCH2 0.000233
scalar RSUScenario.node[23].nic.mac1609_4 chUtilizationSCH3 0
scalar RSUScenario.node[23].nic.mac1609_4 chUtilizationSCH4 0
scalar RSUScenario.node[23].nic.mac1609_4 chUtilizationHPPS 0
scalar RSUScenario.node[23].nic.mac1609_4 chUtilizationCRIT_SOL 0
scalar RSUScenario.node[23].nic.mac1609_4 previousSignalQualityCCH 100
scalar RSUScenario.node[23].nic.mac1609_4 previousSignalQualitySCH1 0
scalar RSUScenario.node[23].nic.mac1609_4 previousSignalQualitySCH2 100
scalar RSUScenario.node[23].nic.mac1609_4 previousSignalQualitySCH3 0
scalar RSUScenario.node[23].nic.mac1609_4 previousSignalQualitySCH4 0
scalar RSUScenario.node[23].nic.mac1609_4 chPacketsCCH 941
scalar RSUScenario.node[23].nic.mac1609_4 chPacketsSCH1 0
scalar RSUScenario.node[23].nic.mac1609_4 chPacketsSCH2 0
scalar RSUScenario.node[23].nic.mac1609_4 chPacketsSCH3 0
scalar RSUScenario.node[23].nic.mac1609_4 chPacketsSCH4 0
scalar RSUScenario.node[23].nic.mac1609_4 ReceivedUnicastPackets 0
scalar RSUScenario.node[23].nic.mac1609_4 ReceivedBroadcasts 27151
scalar RSUScenario.node[23].nic.mac1609_4 SentPackets 942
scalar RSUScenario.node[23].nic.mac1609_4 SentAcknowledgements 0
scalar RSUScenario.node[23].nic.mac1609_4 SNIRLostPackets 3
scalar RSUScenario.node[23].nic.mac1609_4 RXTXLostPackets 1
scalar RSUScenario.node[23].nic.mac1609_4 TotalLostPackets 4
scalar RSUScenario.node[23].nic.mac1609_4 DroppedPacketsInMac 0
scalar RSUScenario.node[23].nic.mac1609_4 TooLittleTime 0
scalar RSUScenario.node[23].nic.mac1609_4 TimesIntoBackoff 943
scalar RSUScenario.node[23].nic.mac1609_4 SlotsBackoff 1416
scalar RSUScenario.node[23].nic.mac1609_4 NumInternalContention 0
scalar RSUScenario.node[23].nic.mac1609_4 totalBusyTime 5.621020751694
scalar RSUScenario.node[23].nic.mac1609_4 throughputMetricMac:last 135.78886364335
attr source throughputSignalMac
attr title "throughputMetricMac, last"
scalar RSUScenario.node[23].nic.mac1609_4 throughputMetricMac:count 27151
attr source throughputSignalMac
attr title "throughputMetricMac, count"
scalar RSUScenario.node[23].nic.mac1609_4 throughputMetricMac:sum 2167659.9250636
attr source throughputSignalMac
attr title "throughputMetricMac, sum"
scalar RSUScenario.node[23].nic.mac1609_4 throughputMetricMac:mean 79.837203972732
attr source throughputSignalMac
attr title "throughputMetricMac, mean"
scalar RSUScenario.node[23].veinsmobility startTime 106000
scalar RSUScenario.node[23].veinsmobility totalTime 94000
scalar RSUScenario.node[23].veinsmobility stopTime 200000
scalar RSUScenario.node[23].veinsmobility minSpeed 0
scalar RSUScenario.node[23].veinsmobility maxSpeed 6.7403223326175
scalar RSUScenario.node[23].veinsmobility totalDistance 129.28623039961
scalar RSUScenario.node[23].veinsmobility totalCO2Emission 109.57458477886
scalar RSUScenario.node[6].appl generatedWSMs 1
scalar RSUScenario.node[6].appl receivedWSMs 47
scalar RSUScenario.node[6].appl generatedBSMs 1779
scalar RSUScenario.node[6].appl receivedBSMs 37289
scalar RSUScenario.node[6].appl generatedWSAs 3
scalar RSUScenario.node[6].appl receivedWSAs 83
scalar RSUScenario.node[6].appl beaconInterval 0.1
scalar RSUScenario.node[6].nic.phy80211p busyTime 0.040349932584298
scalar RSUScenario.node[6].nic.phy80211p ncollisions 2
scalar RSUScenario.node[6].nic.mac1609_4 throughputMetricMac 187.14167023222
scalar RSUScenario.node[6].nic.mac1609_4 throughputMbps 0.16440524011884
scalar RSUScenario.node[6].nic.mac1609_4 throughputControlMbps 0
scalar RSUScenario.node[6].nic.mac1609_4 receivedFramesLowerMsg 37419
scalar RSUScenario.node[6].nic.mac1609_4 receivedBitsLowerPackets 0
scalar RSUScenario.node[6].nic.mac1609_4 receivedBitsLoserWsm 0
scalar RSUScenario.node[6].nic.mac1609_4 packetsNotForMe 0
scalar RSUScenario.node[6].nic.mac1609_4 receivedTotalBits 32872848
scalar RSUScenario.node[6].nic.mac1609_4 collisionsPktNonDecoded 0
scalar RSUScenario.node[6].nic.mac1609_4 chUtilizationCCH 0.343542
scalar RSUScenario.node[6].nic.mac1609_4 chUtilizationSCH1 0
scalar RSUScenario.node[6].nic.mac1609_4 chUtilizationSCH2 0
scalar RSUScenario.node[6].nic.mac1609_4 chUtilizationSCH3 0.000233
scalar RSUScenario.node[6].nic.mac1609_4 chUtilizationSCH4 0
scalar RSUScenario.node[6].nic.mac1609_4 chUtilizationHPPS 0
scalar RSUScenario.node[6].nic.mac1609_4 chUtilizationCRIT_SOL 0
scalar RSUScenario.node[6].nic.mac1609_4 previousSignalQualityCCH 100
scalar RSUScenario.node[6].nic.mac1609_4 previousSignalQualitySCH1 0
scalar RSUScenario.node[6].nic.mac1609_4 previousSignalQualitySCH2 0
scalar RSUScenario.node[6].nic.mac1609_4 previousSignalQualitySCH3 100
scalar RSUScenario.node[6].nic.mac1609_4 previousSignalQualitySCH4 0
scalar RSUScenario.node[6].nic.mac1609_4 chPacketsCCH 1782
scalar RSUScenario.node[6].nic.mac1609_4 chPacketsSCH1 0
scalar RSUScenario.node[6].nic.mac1609_4 chPacketsSCH2 0
scalar RSUScenario.node[6].nic.mac1609_4 chPacketsSCH3 0
scalar RSUScenario.node[6].nic.mac1609_4 chPacketsSCH4 0
scalar RSUScenario.node[6].nic.mac1609_4 ReceivedUnicastPackets 0
scalar RSUScenario.node[6].nic.mac1609_4 ReceivedBroadcasts 37419
scalar RSUScenario.node[6].nic.mac1609_4 SentPackets 1783
scalar RSUScenario.node[6].nic.mac1609_4 SentAcknowledgements 0
scalar RSUScenario.node[6].nic.mac1609_4 SNIRLostPackets 35
scalar RSUScenario.node[6].nic.mac1609_4 RXTXLostPackets 0
scalar RSUScenario.node[6].nic.mac1609_4 TotalLostPackets 35
scalar RSUScenario.node[6].nic.mac1609_4 DroppedPacketsInMac 0
scalar RSUScenario.node[6].nic.mac1609_4 TooLittleTime 0
scalar RSUScenario.node[6].nic.mac1609_4 TimesIntoBackoff 1784
scalar RSUScenario.node[6].nic.mac1609_4 SlotsBackoff 2719
scalar RSUScenario.node[6].nic.mac1609_4 NumInternalContention 0
scalar RSUScenario.node[6].nic.mac1609_4 totalBusyTime 9.457481168794
scalar RSUScenario.node[6].nic.mac1609_4 throughputMetricMac:last 187.14167023222
attr source throughputSignalMac
attr title "throughputMetricMac, last"
scalar RSUScenario.node[6].nic.mac1609_4 throughputMetricMac:count 37419
attr source throughputSignalMac
attr title "throughputMetricMac, count"
scalar RSUScenario.node[6].nic.mac1609_4 throughputMetricMac:sum 4641095.9248879
attr source throughputSignalMac
attr title "throughputMetricMac, sum"
scalar RSUScenario.node[6].nic.mac1609_4 throughputMetricMac:mean 124.03046379882
attr source throughputSignalMac
attr title "throughputMetricMac, mean"
scalar RSUScenario.node[6].veinsmobility startTime 22000
scalar RSUScenario.node[6].veinsmobility totalTime 178000
scalar RSUScenario.node[6].veinsmobility stopTime 200000
scalar RSUScenario.node[6].veinsmobility minSpeed 0.98094131815177
scalar RSUScenario.node[6].veinsmobility maxSpeed 13.793682518269
scalar RSUScenario.node[6].veinsmobility totalDistance 337.56467839437
scalar RSUScenario.node[6].veinsmobility totalCO2Emission 239.94738452086
scalar RSUScenario.node[24].appl generatedWSMs 1
scalar RSUScenario.node[24].appl receivedWSMs 26
scalar RSUScenario.node[24].appl generatedBSMs 909
scalar RSUScenario.node[24].appl receivedBSMs 26427
scalar RSUScenario.node[24].appl generatedWSAs 2
scalar RSUScenario.node[24].appl receivedWSAs 49
scalar RSUScenario.node[24].appl beaconInterval 0.1
scalar RSUScenario.node[24].nic.phy80211p busyTime 0.055867164835196
scalar RSUScenario.node[24].nic.phy80211p ncollisions 1
scalar RSUScenario.node[24].nic.mac1609_4 throughputMetricMac 132.54305418141
scalar RSUScenario.node[24].nic.mac1609_4 throughputMbps 0.11647096605195
scalar RSUScenario.node[24].nic.mac1609_4 throughputControlMbps 0
scalar RSUScenario.node[24].nic.mac1609_4 receivedFramesLowerMsg 26502
scalar RSUScenario.node[24].nic.mac1609_4 receivedBitsLowerPackets 0
scalar RSUScenario.node[24].nic.mac1609_4 receivedBitsLoserWsm 0
scalar RSUScenario.node[24].nic.mac1609_4 packetsNotForMe 0
scalar RSUScenario.node[24].nic.mac1609_4 receivedTotalBits 23288384
scalar RSUScenario.node[24].nic.mac1609_4 collisionsPktNonDecoded 0
scalar RSUScenario.node[24].nic.mac1609_4 chUtilizationCCH 0.175567
scalar RSUScenario.node[24].nic.mac1609_4 chUtilizationSCH1 0
scalar RSUScenario.node[24].nic.mac1609_4 chUtilizationSCH2 0.000233
scalar RSUScenario.node[24].nic.mac1609_4 chUtilizationSCH3 0
scalar RSUScenario.node[24].nic.mac1609_4 chUtilizationSCH4 0
scalar RSUScenario.node[24].nic.mac1609_4 chUtilizationHPPS 0
scalar RSUScenario.node[24].nic.mac1609_4 chUtilizationCRIT_SOL 0
scalar RSUScenario.node[24].nic.mac1609_4 previousSignalQualityCCH 100
scalar RSUScenario.node[24].nic.mac1609_4 previousSignalQualitySCH1 0
scalar RSUScenario.node[24].nic.mac1609_4 previousSignalQualitySCH2 100
scalar RSUScenario.node[24].nic.mac1609_4 previousSignalQualitySCH3 0
scalar RSUScenario.node[24].nic.mac1609_4 previousSignalQualitySCH4 0
scalar RSUScenario.node[24].nic.mac1609_4 chPacketsCCH 911
scalar RSUScenario.node[24].nic.mac1609_4 chPacketsSCH1 0
scalar RSUScenario.node[24].nic.mac1609_4 chPacketsSCH2 0
scalar RSUScenario.node[24].nic.mac1609_4 chPacketsSCH3 0
scalar RSUScenario.node[24].nic.mac1609_4 chPacketsSCH4 0
scalar RSUScenario.node[24].nic.mac1609_4 ReceivedUnicastPackets 0
scalar RSUScenario.node[24].nic.mac1609_4 ReceivedBroadcasts 26502
scalar RSUScenario.node[24].nic.mac1609_4 SentPackets 912
scalar RSUScenario.node[24].nic.mac1609_4 SentAcknowledgements 0
scalar RSUScenario.node[24].nic.mac1609_4 SNIRLostPackets 4
scalar RSUScenario.node[24].nic.mac1609_4 RXTXLostPackets 0
scalar RSUScenario.node[24].nic.mac1609_4 TotalLostPackets 4
scalar RSUScenario.node[24].nic.mac1609_4 DroppedPacketsInMac 0
scalar RSUScenario.node[24].nic.mac1609_4 TooLittleTime 0
scalar RSUScenario.node[24].nic.mac1609_4 TimesIntoBackoff 913
scalar RSUScenario.node[24].nic.mac1609_4 SlotsBackoff 1402
scalar RSUScenario.node[24].nic.mac1609_4 NumInternalContention 0
scalar RSUScenario.node[24].nic.mac1609_4 totalBusyTime 5.565092096631
scalar RSUScenario.node[24].nic.mac1609_4 throughputMetricMac:last 132.54305418141
attr source throughputSignalMac
attr title "throughputMetricMac, last"
scalar RSUScenario.node[24].nic.mac1609_4 throughputMetricMac:count 26502
attr source throughputSignalMac
attr title "throughputMetricMac, count"
scalar RSUScenario.node[24].nic.mac1609_4 throughputMetricMac:sum 2053799.1839529
attr source throughputSignalMac
attr title "throughputMetricMac, sum"
scalar RSUScenario.node[24].nic.mac1609_4 throughputMetricMac:mean 77.496007242959
attr source throughputSignalMac
attr title "throughputMetricMac, mean"
scalar RSUScenario.node[24].veinsmobility startTime 109000
scalar RSUScenario.node[24].veinsmobility totalTime 91000
scalar RSUScenario.node[24].veinsmobility stopTime 200000
scalar RSUScenario.node[24].veinsmobility minSpeed 0
scalar RSUScenario.node[24].veinsmobility maxSpeed 5.9430106001603
scalar RSUScenario.node[24].veinsmobility totalDistance 121.39510846041
scalar RSUScenario.node[24].veinsmobility totalCO2Emission 104.83172222377
scalar RSUScenario.node[25].appl generatedWSMs 1
scalar RSUScenario.node[25].appl receivedWSMs 13
scalar RSUScenario.node[25].appl generatedBSMs 599
scalar RSUScenario.node[25].appl receivedBSMs 19248
scalar RSUScenario.node[25].appl generatedWSAs 3
scalar RSUScenario.node[25].appl receivedWSAs 20
scalar RSUScenario.node[25].appl beaconInterval 0.1
scalar RSUScenario.node[25].nic.phy80211p busyTime 0.061666266666692
scalar RSUScenario.node[25].nic.phy80211p ncollisions 0
scalar RSUScenario.node[25].nic.mac1609_4 throughputMetricMac 96.429047906234
scalar RSUScenario.node[25].nic.mac1609_4 throughputMbps 0.084792105833718
scalar RSUScenario.node[25].nic.mac1609_4 throughputControlMbps 0
scalar RSUScenario.node[25].nic.mac1609_4 receivedFramesLowerMsg 19281
scalar RSUScenario.node[25].nic.mac1609_4 receivedBitsLowerPackets 0
scalar RSUScenario.node[25].nic.mac1609_4 receivedBitsLoserWsm 0
scalar RSUScenario.node[25].nic.mac1609_4 packetsNotForMe 0
scalar RSUScenario.node[25].nic.mac1609_4 receivedTotalBits 16954192
scalar RSUScenario.node[25].nic.mac1609_4 collisionsPktNonDecoded 0
scalar RSUScenario.node[25].nic.mac1609_4 chUtilizationCCH 0.115802
scalar RSUScenario.node[25].nic.mac1609_4 chUtilizationSCH1 0.000233
scalar RSUScenario.node[25].nic.mac1609_4 chUtilizationSCH2 0
scalar RSUScenario.node[25].nic.mac1609_4 chUtilizationSCH3 0
scalar RSUScenario.node[25].nic.mac1609_4 chUtilizationSCH4 0
scalar RSUScenario.node[25].nic.mac1609_4 chUtilizationHPPS 0
scalar RSUScenario.node[25].nic.mac1609_4 chUtilizationCRIT_SOL 0
scalar RSUScenario.node[25].nic.mac1609_4 previousSignalQualityCCH 100
scalar RSUScenario.node[25].nic.mac1609_4 previousSignalQualitySCH1 100
scalar RSUScenario.node[25].nic.mac1609_4 previousSignalQualitySCH2 0
scalar RSUScenario.node[25].nic.mac1609_4 previousSignalQualitySCH3 0
scalar RSUScenario.node[25].nic.mac1609_4 previousSignalQualitySCH4 0
scalar RSUScenario.node[25].nic.mac1609_4 chPacketsCCH 602
scalar RSUScenario.node[25].nic.mac1609_4 chPacketsSCH1 0
scalar RSUScenario.node[25].nic.mac1609_4 chPacketsSCH2 0
scalar RSUScenario.node[25].nic.mac1609_4 chPacketsSCH3 0
scalar RSUScenario.node[25].nic.mac1609_4 chPacketsSCH4 0
scalar RSUScenario.node[25].nic.mac1609_4 ReceivedUnicastPackets 0
scalar RSUScenario.node[25].nic.mac1609_4 ReceivedBroadcasts 19281
scalar RSUScenario.node[25].nic.mac1609_4 SentPackets 603
scalar RSUScenario.node[25].nic.mac1609_4 SentAcknowledgements 0
scalar RSUScenario.node[25].nic.mac1609_4 SNIRLostPackets 1
scalar RSUScenario.node[25].nic.mac1609_4 RXTXLostPackets 0
scalar RSUScenario.node[25].nic.mac1609_4 TotalLostPackets 1
scalar RSUScenario.node[25].nic.mac1609_4 DroppedPacketsInMac 0
scalar RSUScenario.node[25].nic.mac1609_4 TooLittleTime 0
scalar RSUScenario.node[25].nic.mac1609_4 TimesIntoBackoff 1203
scalar RSUScenario.node[25].nic.mac1609_4 SlotsBackoff 1829
scalar RSUScenario.node[25].nic.mac1609_4 NumInternalContention 0
scalar RSUScenario.node[25].nic.mac1609_4 totalBusyTime 4.026686777703
scalar RSUScenario.node[25].nic.mac1609_4 throughputMetricMac:last 96.429047906234
attr source throughputSignalMac
attr title "throughputMetricMac, last"
scalar RSUScenario.node[25].nic.mac1609_4 throughputMetricMac:count 19281
attr source throughputSignalMac
attr title "throughputMetricMac, count"
scalar RSUScenario.node[25].nic.mac1609_4 throughputMetricMac:sum 1031910.5858003
attr source throughputSignalMac
attr title "throughputMetricMac, sum"
scalar RSUScenario.node[25].nic.mac1609_4 throughputMetricMac:mean 53.519557377743
attr source throughputSignalMac
attr title "throughputMetricMac, mean"
scalar RSUScenario.node[25].veinsmobility startTime 140000
scalar RSUScenario.node[25].veinsmobility totalTime 60000
scalar RSUScenario.node[25].veinsmobility stopTime 200000
scalar RSUScenario.node[25].veinsmobility minSpeed 0.68042719191989
scalar RSUScenario.node[25].veinsmobility maxSpeed 5.4218828293063
scalar RSUScenario.node[25].veinsmobility totalDistance 114.01584884393
scalar RSUScenario.node[25].veinsmobility totalCO2Emission 72.107433417441
scalar RSUScenario.node[26].appl generatedWSMs 1
scalar RSUScenario.node[26].appl receivedWSMs 13
scalar RSUScenario.node[26].appl generatedBSMs 569
scalar RSUScenario.node[26].appl receivedBSMs 18549
scalar RSUScenario.node[26].appl generatedWSAs 2
scalar RSUScenario.node[26].appl receivedWSAs 21
scalar RSUScenario.node[26].appl beaconInterval 0.1
scalar RSUScenario.node[26].nic.phy80211p busyTime 0.062557333333357
scalar RSUScenario.node[26].nic.phy80211p ncollisions 0
scalar RSUScenario.node[26].nic.mac1609_4 throughputMetricMac 92.938177338865
scalar RSUScenario.node[26].nic.mac1609_4 throughputMbps 0.08171613873665
scalar RSUScenario.node[26].nic.mac1609_4 throughputControlMbps 0
scalar RSUScenario.node[26].nic.mac1609_4 receivedFramesLowerMsg 18583
scalar RSUScenario.node[26].nic.mac1609_4 receivedBitsLowerPackets 0
scalar RSUScenario.node[26].nic.mac1609_4 receivedBitsLoserWsm 0
scalar RSUScenario.node[26].nic.mac1609_4 packetsNotForMe 0
scalar RSUScenario.node[26].nic.mac1609_4 receivedTotalBits 16339152
scalar RSUScenario.node[26].nic.mac1609_4 collisionsPktNonDecoded 0
scalar RSUScenario.node[26].nic.mac1609_4 chUtilizationCCH 0.109947
scalar RSUScenario.node[26].nic.mac1609_4 chUtilizationSCH1 0.000233
scalar RSUScenario.node[26].nic.mac1609_4 chUtilizationSCH2 0
scalar RSUScenario.node[26].nic.mac1609_4 chUtilizationSCH3 0
scalar RSUScenario.node[26].nic.mac1609_4 chUtilizationSCH4 0
scalar RSUScenario.node[26].nic.mac1609_4 chUtilizationHPPS 0
scalar RSUScenario.node[26].nic.mac1609_4 chUtilizationCRIT_SOL 0
scalar RSUScenario.node[26].nic.mac1609_4 previousSignalQualityCCH 100
scalar RSUScenario.node[26].nic.mac1609_4 previousSignalQualitySCH1 100
scalar RSUScenario.node[26].nic.mac1609_4 previousSignalQualitySCH2 0
scalar RSUScenario.node[26].nic.mac1609_4 previousSignalQualitySCH3 0
scalar RSUScenario.node[26].nic.mac1609_4 previousSignalQualitySCH4 0
scalar RSUScenario.node[26].nic.mac1609_4 chPacketsCCH 571
scalar RSUScenario.node[26].nic.mac1609_4 chPacketsSCH1 1
scalar RSUScenario.node[26].nic.mac1609_4 chPacketsSCH2 0
scalar RSUScenario.node[26].nic.mac1609_4 chPacketsSCH3 0
scalar RSUScenario.node[26].nic.mac1609_4 chPacketsSCH4 0
scalar RSUScenario.node[26].nic.mac1609_4 ReceivedUnicastPackets 0
scalar RSUScenario.node[26].nic.mac1609_4 ReceivedBroadcasts 18583
scalar RSUScenario.node[26].nic.mac1609_4 SentPackets 572
scalar RSUScenario.node[26].nic.mac1609_4 SentAcknowledgements 0
scalar RSUScenario.node[26].nic.mac1609_4 SNIRLostPackets 0
scalar RSUScenario.node[26].nic.mac1609_4 RXTXLostPackets 1
scalar RSUScenario.node[26].nic.mac1609_4 TotalLostPackets 1
scalar RSUScenario.node[26].nic.mac1609_4 DroppedPacketsInMac 0
scalar RSUScenario.node[26].nic.mac1609_4 TooLittleTime 0
scalar RSUScenario.node[26].nic.mac1609_4 TimesIntoBackoff 1143
scalar RSUScenario.node[26].nic.mac1609_4 SlotsBackoff 1688
scalar RSUScenario.node[26].nic.mac1609_4 NumInternalContention 0
scalar RSUScenario.node[26].nic.mac1609_4 totalBusyTime 3.83177670437
scalar RSUScenario.node[26].nic.mac1609_4 throughputMetricMac:last 92.938177338865
attr source throughputSignalMac
attr title "throughputMetricMac, last"
scalar RSUScenario.node[26].nic.mac1609_4 throughputMetricMac:count 18583
attr source throughputSignalMac
attr title "throughputMetricMac, count"
scalar RSUScenario.node[26].nic.mac1609_4 throughputMetricMac:sum 954153.25338468
attr source throughputSignalMac
attr title "throughputMetricMac, sum"
scalar RSUScenario.node[26].nic.mac1609_4 throughputMetricMac:mean 51.34549068421
attr source throughputSignalMac
attr title "throughputMetricMac, mean"
scalar RSUScenario.node[26].veinsmobility startTime 143000
scalar RSUScenario.node[26].veinsmobility totalTime 57000
scalar RSUScenario.node[26].veinsmobility stopTime 200000
scalar RSUScenario.node[26].veinsmobility minSpeed 0.81150968343936
scalar RSUScenario.node[26].veinsmobility maxSpeed 5.3908081853904
scalar RSUScenario.node[26].veinsmobility totalDistance 106.65007352073
scalar RSUScenario.node[26].veinsmobility totalCO2Emission 66.485420994761
scalar RSUScenario.node[27].appl generatedWSMs 1
scalar RSUScenario.node[27].appl receivedWSMs 13
scalar RSUScenario.node[27].appl generatedBSMs 549
scalar RSUScenario.node[27].appl receivedBSMs 18060
scalar RSUScenario.node[27].appl generatedWSAs 2
scalar RSUScenario.node[27].appl receivedWSAs 21
scalar RSUScenario.node[27].appl beaconInterval 0.1
scalar RSUScenario.node[27].nic.phy80211p busyTime 0.063126254545478
scalar RSUScenario.node[27].nic.phy80211p ncollisions 0
scalar RSUScenario.node[27].nic.mac1609_4 throughputMetricMac 90.492567442858
scalar RSUScenario.node[27].nic.mac1609_4 throughputMbps 0.079564002028165
scalar RSUScenario.node[27].nic.mac1609_4 throughputControlMbps 0
scalar RSUScenario.node[27].nic.mac1609_4 receivedFramesLowerMsg 18094
scalar RSUScenario.node[27].nic.mac1609_4 receivedBitsLowerPackets 0
scalar RSUScenario.node[27].nic.mac1609_4 receivedBitsLoserWsm 0
scalar RSUScenario.node[27].nic.mac1609_4 packetsNotForMe 0
scalar RSUScenario.node[27].nic.mac1609_4 receivedTotalBits 15908832
scalar RSUScenario.node[27].nic.mac1609_4 collisionsPktNonDecoded 0
scalar RSUScenario.node[27].nic.mac1609_4 chUtilizationCCH 0.106087
scalar RSUScenario.node[27].nic.mac1609_4 chUtilizationSCH1 0
scalar RSUScenario.node[27].nic.mac1609_4 chUtilizationSCH2 0
scalar RSUScenario.node[27].nic.mac1609_4 chUtilizationSCH3 0.000233
scalar RSUScenario.node[27].nic.mac1609_4 chUtilizationSCH4 0
scalar RSUScenario.node[27].nic.mac1609_4 chUtilizationHPPS 0
scalar RSUScenario.node[27].nic.mac1609_4 chUtilizationCRIT_SOL 0
scalar RSUScenario.node[27].nic.mac1609_4 previousSignalQualityCCH 100
scalar RSUScenario.node[27].nic.mac1609_4 previousSignalQualitySCH1 0
scalar RSUScenario.node[27].nic.mac1609_4 previousSignalQualitySCH2 0
scalar RSUScenario.node[27].nic.mac1609_4 previousSignalQualitySCH3 100
scalar RSUScenario.node[27].nic.mac1609_4 previousSignalQualitySCH4 0
scalar RSUScenario.node[27].nic.mac1609_4 chPacketsCCH 551
scalar RSUScenario.node[27].nic.mac1609_4 chPacketsSCH1 0
scalar RSUScenario.node[27].nic.mac1609_4 chPacketsSCH2 0
scalar RSUScenario.node[27].nic.mac1609_4 chPacketsSCH3 1
scalar RSUScenario.node[27].nic.mac1609_4 chPacketsSCH4 0
scalar RSUScenario.node[27].nic.mac1609_4 ReceivedUnicastPackets 0
scalar RSUScenario.node[27].nic.mac1609_4 ReceivedBroadcasts 18094
scalar RSUScenario.node[27].nic.mac1609_4 SentPackets 552
scalar RSUScenario.node[27].nic.mac1609_4 SentAcknowledgements 0
scalar RSUScenario.node[27].nic.mac1609_4 SNIRLostPackets 1
[...]
scalar RSUScenario.node[12].nic.mac1609_4 SentPackets 1505
scalar RSUScenario.node[12].nic.mac1609_4 SentAcknowledgements 0
scalar RSUScenario.node[12].nic.mac1609_4 SNIRLostPackets 14
scalar RSUScenario.node[12].nic.mac1609_4 RXTXLostPackets 0
scalar RSUScenario.node[12].nic.mac1609_4 TotalLostPackets 14
scalar RSUScenario.node[12].nic.mac1609_4 DroppedPacketsInMac 0
scalar RSUScenario.node[12].nic.mac1609_4 TooLittleTime 0
scalar RSUScenario.node[12].nic.mac1609_4 TimesIntoBackoff 1505
scalar RSUScenario.node[12].nic.mac1609_4 SlotsBackoff 2222
scalar RSUScenario.node[12].nic.mac1609_4 NumInternalContention 0
scalar RSUScenario.node[12].nic.mac1609_4 totalBusyTime 7.316031779525
scalar RSUScenario.node[12].nic.mac1609_4 throughputMetricMac:last 175.96388291565
attr source throughputSignalMac
attr title "throughputMetricMac, last"
scalar RSUScenario.node[12].nic.mac1609_4 throughputMetricMac:count 35184
attr source throughputSignalMac
attr title "throughputMetricMac, count"
scalar RSUScenario.node[12].nic.mac1609_4 throughputMetricMac:sum 3945792.1759023
attr source throughputSignalMac
attr title "throughputMetricMac, sum"
scalar RSUScenario.node[12].nic.mac1609_4 throughputMetricMac:mean 112.14734469936
attr source throughputSignalMac
attr title "throughputMetricMac, mean"
scalar RSUScenario.node[12].veinsmobility startTime 50000
scalar RSUScenario.node[12].veinsmobility totalTime 150000
scalar RSUScenario.node[12].veinsmobility stopTime 200000
scalar RSUScenario.node[12].veinsmobility minSpeed 0
scalar RSUScenario.node[12].veinsmobility maxSpeed 7.4105448994872
scalar RSUScenario.node[12].veinsmobility totalDistance 218.62111679437
scalar RSUScenario.node[12].veinsmobility totalCO2Emission 179.95103440512
scalar RSUScenario.node[13].appl generatedWSMs 1
scalar RSUScenario.node[13].appl receivedWSMs 27
scalar RSUScenario.node[13].appl generatedBSMs 1169
scalar RSUScenario.node[13].appl receivedBSMs 31126
scalar RSUScenario.node[13].appl generatedWSAs 3
scalar RSUScenario.node[13].appl receivedWSAs 47
scalar RSUScenario.node[13].appl beaconInterval 0.1
scalar RSUScenario.node[13].nic.phy80211p busyTime 0.051179282051314
scalar RSUScenario.node[13].nic.phy80211p ncollisions 1
scalar RSUScenario.node[13].nic.mac1609_4 throughputMetricMac 156.03891388521
scalar RSUScenario.node[13].nic.mac1609_4 throughputMbps 0.13715644486601
scalar RSUScenario.node[13].nic.mac1609_4 throughputControlMbps 0
scalar RSUScenario.node[13].nic.mac1609_4 receivedFramesLowerMsg 31200
scalar RSUScenario.node[13].nic.mac1609_4 receivedBitsLowerPackets 0
scalar RSUScenario.node[13].nic.mac1609_4 receivedBitsLoserWsm 0
scalar RSUScenario.node[13].nic.mac1609_4 packetsNotForMe 0
scalar RSUScenario.node[13].nic.mac1609_4 receivedTotalBits 27424448
scalar RSUScenario.node[13].nic.mac1609_4 collisionsPktNonDecoded 0
scalar RSUScenario.node[13].nic.mac1609_4 chUtilizationCCH 0.225812
scalar RSUScenario.node[13].nic.mac1609_4 chUtilizationSCH1 0
scalar RSUScenario.node[13].nic.mac1609_4 chUtilizationSCH2 0.000233
scalar RSUScenario.node[13].nic.mac1609_4 chUtilizationSCH3 0
scalar RSUScenario.node[13].nic.mac1609_4 chUtilizationSCH4 0
scalar RSUScenario.node[13].nic.mac1609_4 chUtilizationHPPS 0
scalar RSUScenario.node[13].nic.mac1609_4 chUtilizationCRIT_SOL 0
scalar RSUScenario.node[13].nic.mac1609_4 previousSignalQualityCCH 100
scalar RSUScenario.node[13].nic.mac1609_4 previousSignalQualitySCH1 0
scalar RSUScenario.node[13].nic.mac1609_4 previousSignalQualitySCH2 100
scalar RSUScenario.node[13].nic.mac1609_4 previousSignalQualitySCH3 0
scalar RSUScenario.node[13].nic.mac1609_4 previousSignalQualitySCH4 0
scalar RSUScenario.node[13].nic.mac1609_4 chPacketsCCH 1172
scalar RSUScenario.node[13].nic.mac1609_4 chPacketsSCH1 0
scalar RSUScenario.node[13].nic.mac1609_4 chPacketsSCH2 1
scalar RSUScenario.node[13].nic.mac1609_4 chPacketsSCH3 0
scalar RSUScenario.node[13].nic.mac1609_4 chPacketsSCH4 0
scalar RSUScenario.node[13].nic.mac1609_4 ReceivedUnicastPackets 0
scalar RSUScenario.node[13].nic.mac1609_4 ReceivedBroadcasts 31200
scalar RSUScenario.node[13].nic.mac1609_4 SentPackets 1173
scalar RSUScenario.node[13].nic.mac1609_4 SentAcknowledgements 0
scalar RSUScenario.node[13].nic.mac1609_4 SNIRLostPackets 14
scalar RSUScenario.node[13].nic.mac1609_4 RXTXLostPackets 0
scalar RSUScenario.node[13].nic.mac1609_4 TotalLostPackets 14
scalar RSUScenario.node[13].nic.mac1609_4 DroppedPacketsInMac 0
scalar RSUScenario.node[13].nic.mac1609_4 TooLittleTime 0
scalar RSUScenario.node[13].nic.mac1609_4 TimesIntoBackoff 1173
scalar RSUScenario.node[13].nic.mac1609_4 SlotsBackoff 1787
scalar RSUScenario.node[13].nic.mac1609_4 NumInternalContention 0
scalar RSUScenario.node[13].nic.mac1609_4 totalBusyTime 6.585291532886
scalar RSUScenario.node[13].nic.mac1609_4 throughputMetricMac:last 156.03891388521
attr source throughputSignalMac
attr title "throughputMetricMac, last"
scalar RSUScenario.node[13].nic.mac1609_4 throughputMetricMac:count 31200
attr source throughputSignalMac
attr title "throughputMetricMac, count"
scalar RSUScenario.node[13].nic.mac1609_4 throughputMetricMac:sum 2959735.5246294
attr source throughputSignalMac
attr title "throughputMetricMac, sum"
scalar RSUScenario.node[13].nic.mac1609_4 throughputMetricMac:mean 94.863318097095
attr source throughputSignalMac
attr title "throughputMetricMac, mean"
scalar RSUScenario.node[13].veinsmobility startTime 83000
scalar RSUScenario.node[13].veinsmobility totalTime 117000
scalar RSUScenario.node[13].veinsmobility stopTime 200000
scalar RSUScenario.node[13].veinsmobility minSpeed 0.00096499577547671
scalar RSUScenario.node[13].veinsmobility maxSpeed 7.1800269404833
scalar RSUScenario.node[13].veinsmobility totalDistance 209.47179765824
scalar RSUScenario.node[13].veinsmobility totalCO2Emission 144.68911034915
scalar RSUScenario.node[2].appl generatedWSMs 1
scalar RSUScenario.node[2].appl receivedWSMs 46
scalar RSUScenario.node[2].appl generatedBSMs 1939
scalar RSUScenario.node[2].appl receivedBSMs 36345
scalar RSUScenario.node[2].appl generatedWSAs 3
scalar RSUScenario.node[2].appl receivedWSAs 83
scalar RSUScenario.node[2].appl beaconInterval 0.1
scalar RSUScenario.node[2].nic.phy80211p busyTime 0.036107628866004
scalar RSUScenario.node[2].nic.phy80211p ncollisions 3
scalar RSUScenario.node[2].nic.mac1609_4 throughputMetricMac 182.41549106766
scalar RSUScenario.node[2].nic.mac1609_4 throughputMbps 0.16024508217545
scalar RSUScenario.node[2].nic.mac1609_4 throughputControlMbps 0
scalar RSUScenario.node[2].nic.mac1609_4 receivedFramesLowerMsg 36474
scalar RSUScenario.node[2].nic.mac1609_4 receivedBitsLowerPackets 0
scalar RSUScenario.node[2].nic.mac1609_4 receivedBitsLoserWsm 0
scalar RSUScenario.node[2].nic.mac1609_4 packetsNotForMe 0
scalar RSUScenario.node[2].nic.mac1609_4 receivedTotalBits 32041024
scalar RSUScenario.node[2].nic.mac1609_4 collisionsPktNonDecoded 0
scalar RSUScenario.node[2].nic.mac1609_4 chUtilizationCCH 0.374422
scalar RSUScenario.node[2].nic.mac1609_4 chUtilizationSCH1 0
scalar RSUScenario.node[2].nic.mac1609_4 chUtilizationSCH2 0
scalar RSUScenario.node[2].nic.mac1609_4 chUtilizationSCH3 0.000233
scalar RSUScenario.node[2].nic.mac1609_4 chUtilizationSCH4 0
scalar RSUScenario.node[2].nic.mac1609_4 chUtilizationHPPS 0
scalar RSUScenario.node[2].nic.mac1609_4 chUtilizationCRIT_SOL 0
scalar RSUScenario.node[2].nic.mac1609_4 previousSignalQualityCCH 100
scalar RSUScenario.node[2].nic.mac1609_4 previousSignalQualitySCH1 0
scalar RSUScenario.node[2].nic.mac1609_4 previousSignalQualitySCH2 0
scalar RSUScenario.node[2].nic.mac1609_4 previousSignalQualitySCH3 100
scalar RSUScenario.node[2].nic.mac1609_4 previousSignalQualitySCH4 0
scalar RSUScenario.node[2].nic.mac1609_4 chPacketsCCH 1942
scalar RSUScenario.node[2].nic.mac1609_4 chPacketsSCH1 0
scalar RSUScenario.node[2].nic.mac1609_4 chPacketsSCH2 0
scalar RSUScenario.node[2].nic.mac1609_4 chPacketsSCH3 0
scalar RSUScenario.node[2].nic.mac1609_4 chPacketsSCH4 0
scalar RSUScenario.node[2].nic.mac1609_4 ReceivedUnicastPackets 0
scalar RSUScenario.node[2].nic.mac1609_4 ReceivedBroadcasts 36474
scalar RSUScenario.node[2].nic.mac1609_4 SentPackets 1943
scalar RSUScenario.node[2].nic.mac1609_4 SentAcknowledgements 0
scalar RSUScenario.node[2].nic.mac1609_4 SNIRLostPackets 56
scalar RSUScenario.node[2].nic.mac1609_4 RXTXLostPackets 0
scalar RSUScenario.node[2].nic.mac1609_4 TotalLostPackets 56
scalar RSUScenario.node[2].nic.mac1609_4 DroppedPacketsInMac 0
scalar RSUScenario.node[2].nic.mac1609_4 TooLittleTime 0
scalar RSUScenario.node[2].nic.mac1609_4 TimesIntoBackoff 1944
scalar RSUScenario.node[2].nic.mac1609_4 SlotsBackoff 2991
scalar RSUScenario.node[2].nic.mac1609_4 NumInternalContention 0
scalar RSUScenario.node[2].nic.mac1609_4 totalBusyTime 10.830201647589
scalar RSUScenario.node[2].nic.mac1609_4 throughputMetricMac:last 182.41549106766
attr source throughputSignalMac
attr title "throughputMetricMac, last"
scalar RSUScenario.node[2].nic.mac1609_4 throughputMetricMac:count 36474
attr source throughputSignalMac
attr title "throughputMetricMac, count"
scalar RSUScenario.node[2].nic.mac1609_4 throughputMetricMac:sum 4553216.3660546
attr source throughputSignalMac
attr title "throughputMetricMac, sum"
scalar RSUScenario.node[2].nic.mac1609_4 throughputMetricMac:mean 124.83457712493
attr source throughputSignalMac
attr title "throughputMetricMac, mean"
scalar RSUScenario.node[2].veinsmobility startTime 6000
scalar RSUScenario.node[2].veinsmobility totalTime 194000
scalar RSUScenario.node[2].veinsmobility stopTime 200000
scalar RSUScenario.node[2].veinsmobility minSpeed 0.75509291509716
scalar RSUScenario.node[2].veinsmobility maxSpeed 13.987930055733
scalar RSUScenario.node[2].veinsmobility totalDistance 512.96064980434
scalar RSUScenario.node[2].veinsmobility totalCO2Emission 270.36112474224
scalar RSUScenario.node[3].appl generatedWSMs 1
scalar RSUScenario.node[3].appl receivedWSMs 46
scalar RSUScenario.node[3].appl generatedBSMs 1889
scalar RSUScenario.node[3].appl receivedBSMs 36516
scalar RSUScenario.node[3].appl generatedWSAs 3
scalar RSUScenario.node[3].appl receivedWSAs 83
scalar RSUScenario.node[3].appl beaconInterval 0.1
scalar RSUScenario.node[3].nic.phy80211p busyTime 0.037236571428597
scalar RSUScenario.node[3].nic.phy80211p ncollisions 3
scalar RSUScenario.node[3].nic.mac1609_4 throughputMetricMac 183.27070439978
scalar RSUScenario.node[3].nic.mac1609_4 throughputMbps 0.16099766990763
scalar RSUScenario.node[3].nic.mac1609_4 throughputControlMbps 0
scalar RSUScenario.node[3].nic.mac1609_4 receivedFramesLowerMsg 36645
scalar RSUScenario.node[3].nic.mac1609_4 receivedBitsLowerPackets 0
scalar RSUScenario.node[3].nic.mac1609_4 receivedBitsLoserWsm 0
scalar RSUScenario.node[3].nic.mac1609_4 packetsNotForMe 0
scalar RSUScenario.node[3].nic.mac1609_4 receivedTotalBits 32191504
scalar RSUScenario.node[3].nic.mac1609_4 collisionsPktNonDecoded 0
scalar RSUScenario.node[3].nic.mac1609_4 chUtilizationCCH 0.364772
scalar RSUScenario.node[3].nic.mac1609_4 chUtilizationSCH1 0
scalar RSUScenario.node[3].nic.mac1609_4 chUtilizationSCH2 0
scalar RSUScenario.node[3].nic.mac1609_4 chUtilizationSCH3 0.000233
scalar RSUScenario.node[3].nic.mac1609_4 chUtilizationSCH4 0
scalar RSUScenario.node[3].nic.mac1609_4 chUtilizationHPPS 0
scalar RSUScenario.node[3].nic.mac1609_4 chUtilizationCRIT_SOL 0
scalar RSUScenario.node[3].nic.mac1609_4 previousSignalQualityCCH 100
scalar RSUScenario.node[3].nic.mac1609_4 previousSignalQualitySCH1 0
scalar RSUScenario.node[3].nic.mac1609_4 previousSignalQualitySCH2 0
scalar RSUScenario.node[3].nic.mac1609_4 previousSignalQualitySCH3 100
scalar RSUScenario.node[3].nic.mac1609_4 previousSignalQualitySCH4 0
scalar RSUScenario.node[3].nic.mac1609_4 chPacketsCCH 1892
scalar RSUScenario.node[3].nic.mac1609_4 chPacketsSCH1 0
scalar RSUScenario.node[3].nic.mac1609_4 chPacketsSCH2 0
scalar RSUScenario.node[3].nic.mac1609_4 chPacketsSCH3 1
scalar RSUScenario.node[3].nic.mac1609_4 chPacketsSCH4 0
scalar RSUScenario.node[3].nic.mac1609_4 ReceivedUnicastPackets 0
scalar RSUScenario.node[3].nic.mac1609_4 ReceivedBroadcasts 36645
scalar RSUScenario.node[3].nic.mac1609_4 SentPackets 1893
scalar RSUScenario.node[3].nic.mac1609_4 SentAcknowledgements 0
scalar RSUScenario.node[3].nic.mac1609_4 SNIRLostPackets 56
scalar RSUScenario.node[3].nic.mac1609_4 RXTXLostPackets 0
scalar RSUScenario.node[3].nic.mac1609_4 TotalLostPackets 56
scalar RSUScenario.node[3].nic.mac1609_4 DroppedPacketsInMac 0
scalar RSUScenario.node[3].nic.mac1609_4 TooLittleTime 0
scalar RSUScenario.node[3].nic.mac1609_4 TimesIntoBackoff 1893
scalar RSUScenario.node[3].nic.mac1609_4 SlotsBackoff 2887
scalar RSUScenario.node[3].nic.mac1609_4 NumInternalContention 0
scalar RSUScenario.node[3].nic.mac1609_4 totalBusyTime 10.425163885159
scalar RSUScenario.node[3].nic.mac1609_4 throughputMetricMac:last 183.27070439978
attr source throughputSignalMac
attr title "throughputMetricMac, last"
scalar RSUScenario.node[3].nic.mac1609_4 throughputMetricMac:count 36645
attr source throughputSignalMac
attr title "throughputMetricMac, count"
scalar RSUScenario.node[3].nic.mac1609_4 throughputMetricMac:sum 4569402.2548543
attr source throughputSignalMac
attr title "throughputMetricMac, sum"
scalar RSUScenario.node[3].nic.mac1609_4 throughputMetricMac:mean 124.69374416303
attr source throughputSignalMac
attr title "throughputMetricMac, mean"
scalar RSUScenario.node[3].veinsmobility startTime 11000
scalar RSUScenario.node[3].veinsmobility totalTime 189000
scalar RSUScenario.node[3].veinsmobility stopTime 200000
scalar RSUScenario.node[3].veinsmobility minSpeed 0.98564389594301
scalar RSUScenario.node[3].veinsmobility maxSpeed 13.979706056794
scalar RSUScenario.node[3].veinsmobility totalDistance 493.42334988291
scalar RSUScenario.node[3].veinsmobility totalCO2Emission 263.12705076468
scalar RSUScenario.manager roiArea 0
scalar RSUScenario.manager activeVehicleCount 39
scalar RSUScenario.manager totalVehicleCount 201
scalar RSUScenario.rsu[0].appl generatedWSMs 9
scalar RSUScenario.rsu[0].appl receivedWSMs 9
scalar RSUScenario.rsu[0].appl generatedBSMs 0
scalar RSUScenario.rsu[0].appl receivedBSMs 27374
scalar RSUScenario.rsu[0].appl generatedWSAs 0
scalar RSUScenario.rsu[0].appl receivedWSAs 86
scalar RSUScenario.rsu[0].appl beaconInterval 0.1
scalar RSUScenario.rsu[0].nic.phy80211p busyTime 0.027549160000017
scalar RSUScenario.rsu[0].nic.phy80211p ncollisions 652
scalar RSUScenario.rsu[0].nic.mac1609_4 ReceivedUnicastPackets 0
scalar RSUScenario.rsu[0].nic.mac1609_4 ReceivedBroadcasts 27469
scalar RSUScenario.rsu[0].nic.mac1609_4 SentPackets 8
scalar RSUScenario.rsu[0].nic.mac1609_4 SentAcknowledgements 0
scalar RSUScenario.rsu[0].nic.mac1609_4 SNIRLostPackets 1284
scalar RSUScenario.rsu[0].nic.mac1609_4 RXTXLostPackets 0
scalar RSUScenario.rsu[0].nic.mac1609_4 TotalLostPackets 1284
scalar RSUScenario.rsu[0].nic.mac1609_4 DroppedPacketsInMac 1
scalar RSUScenario.rsu[0].nic.mac1609_4 TooLittleTime 0
scalar RSUScenario.rsu[0].nic.mac1609_4 TimesIntoBackoff 12
scalar RSUScenario.rsu[0].nic.mac1609_4 SlotsBackoff 15
scalar RSUScenario.rsu[0].nic.mac1609_4 NumInternalContention 0
scalar RSUScenario.rsu[0].nic.mac1609_4 totalBusyTime 5.3904
scalar RSUScenario.metricsApplication.metrics packetsDeliveredToMetrics 201
scalar RSUScenario.metricsApplication.metrics throughputMetric 1.005
scalar RSUScenario.metricsApplication.metrics throughputMetric:last 1.005
attr source throughputSignal
attr title "throughputMetric, last"
scalar RSUScenario.metricsApplication.metrics throughputMetric:count 201
attr source throughputSignal
attr title "throughputMetric, count"
scalar RSUScenario.metricsApplication.metrics throughputMetric:sum 205.87803094812
attr source throughputSignal
attr title "throughputMetric, sum"
scalar RSUScenario.metricsApplication.metrics throughputMetric:mean 1.0242688106872
attr source throughputSignal
attr title "throughputMetric, mean"
scalar RSUScenario.metricsApplication.appl generatedWSMs 0
scalar RSUScenario.metricsApplication.appl receivedWSMs 0
scalar RSUScenario.metricsApplication.appl generatedBSMs 0
scalar RSUScenario.metricsApplication.appl receivedBSMs 0
scalar RSUScenario.metricsApplication.appl generatedWSAs 0
scalar RSUScenario.metricsApplication.appl receivedWSAs 0
scalar RSUScenario.metricsApplication.appl beaconInterval 1
scalar RSUScenario.metricsApplication.nic.phy80211p busyTime 0
scalar RSUScenario.metricsApplication.nic.phy80211p ncollisions 0
scalar RSUScenario.metricsApplication.nic.mac1609_4 throughputMetricMac 0
scalar RSUScenario.metricsApplication.nic.mac1609_4 throughputMbps 0
scalar RSUScenario.metricsApplication.nic.mac1609_4 throughputControlMbps 0
scalar RSUScenario.metricsApplication.nic.mac1609_4 receivedFramesLowerMsg 0
scalar RSUScenario.metricsApplication.nic.mac1609_4 receivedBitsLowerPackets 0
scalar RSUScenario.metricsApplication.nic.mac1609_4 receivedBitsLoserWsm 0
scalar RSUScenario.metricsApplication.nic.mac1609_4 packetsNotForMe 0
scalar RSUScenario.metricsApplication.nic.mac1609_4 receivedTotalBits 0
scalar RSUScenario.metricsApplication.nic.mac1609_4 collisionsPktNonDecoded 0
scalar RSUScenario.metricsApplication.nic.mac1609_4 chUtilizationCCH 0
scalar RSUScenario.metricsApplication.nic.mac1609_4 chUtilizationSCH1 0
scalar RSUScenario.metricsApplication.nic.mac1609_4 chUtilizationSCH2 0
scalar RSUScenario.metricsApplication.nic.mac1609_4 chUtilizationSCH3 0
scalar RSUScenario.metricsApplication.nic.mac1609_4 chUtilizationSCH4 0
scalar RSUScenario.metricsApplication.nic.mac1609_4 chUtilizationHPPS 0
scalar RSUScenario.metricsApplication.nic.mac1609_4 chUtilizationCRIT_SOL 0
scalar RSUScenario.metricsApplication.nic.mac1609_4 previousSignalQualityCCH 0
scalar RSUScenario.metricsApplication.nic.mac1609_4 previousSignalQualitySCH1 0
scalar RSUScenario.metricsApplication.nic.mac1609_4 previousSignalQualitySCH2 0
scalar RSUScenario.metricsApplication.nic.mac1609_4 previousSignalQualitySCH3 0
scalar RSUScenario.metricsApplication.nic.mac1609_4 previousSignalQualitySCH4 0
scalar RSUScenario.metricsApplication.nic.mac1609_4 chPacketsCCH 0
scalar RSUScenario.metricsApplication.nic.mac1609_4 chPacketsSCH1 0
scalar RSUScenario.metricsApplication.nic.mac1609_4 chPacketsSCH2 0
scalar RSUScenario.metricsApplication.nic.mac1609_4 chPacketsSCH3 0
scalar RSUScenario.metricsApplication.nic.mac1609_4 chPacketsSCH4 0
scalar RSUScenario.metricsApplication.nic.mac1609_4 ReceivedUnicastPackets 0
scalar RSUScenario.metricsApplication.nic.mac1609_4 ReceivedBroadcasts 0
scalar RSUScenario.metricsApplication.nic.mac1609_4 SentPackets 0
scalar RSUScenario.metricsApplication.nic.mac1609_4 SentAcknowledgements 0
scalar RSUScenario.metricsApplication.nic.mac1609_4 SNIRLostPackets 0
scalar RSUScenario.metricsApplication.nic.mac1609_4 RXTXLostPackets 0
scalar RSUScenario.metricsApplication.nic.mac1609_4 TotalLostPackets 0
scalar RSUScenario.metricsApplication.nic.mac1609_4 DroppedPacketsInMac 0
scalar RSUScenario.metricsApplication.nic.mac1609_4 TooLittleTime 0
scalar RSUScenario.metricsApplication.nic.mac1609_4 TimesIntoBackoff 0
scalar RSUScenario.metricsApplication.nic.mac1609_4 SlotsBackoff 0
scalar RSUScenario.metricsApplication.nic.mac1609_4 NumInternalContention 0
scalar RSUScenario.metricsApplication.nic.mac1609_4 totalBusyTime 100.00018082901
scalar RSUScenario.metricsApplication.nic.mac1609_4 throughputMetricMac:last nan
attr source throughputSignalMac
attr title "throughputMetricMac, last"
scalar RSUScenario.metricsApplication.nic.mac1609_4 throughputMetricMac:count 0
attr source throughputSignalMac
attr title "throughputMetricMac, count"
scalar RSUScenario.metricsApplication.nic.mac1609_4 throughputMetricMac:sum 0
attr source throughputSignalMac
attr title "throughputMetricMac, sum"
scalar RSUScenario.metricsApplication.nic.mac1609_4 throughputMetricMac:mean -nan
attr source throughputSignalMac
attr title "throughputMetricMac, mean"

