version 2
run WithChannelSwitching-0-20180714-20:31:55-20208
attr configname WithChannelSwitching
attr datetime 20180714-20:31:55
attr experiment WithChannelSwitching
attr inifile omnetpp.ini
attr iterationvars $0=1
attr iterationvarsf 1-
attr measurement $0=1
attr network vanets.RSUScenario
attr processid 20208
attr repetition 0
attr replication #0
attr resultdir results
attr runnumber 0
attr seedset 0
param *.**.nic.mac1609_4.useServiceChannel true
param *.node[*].appl.dataOnSch true
param *.rsu[*].appl.dataOnSch true
param **.debug false
param **.coreDebug false
param *.playgroundSizeX 2500m
param *.playgroundSizeY 2500m
param *.playgroundSizeZ 50m
param *.annotations.draw false
param *.obstacles.debug false
param *.obstacles.obstacles "xmldoc(\"config.xml\", \"//AnalogueModel[@type='SimpleObstacleShadowing']/obstacles\")"
param *.world.useTorus false
param *.world.use2D false
param *.manager.updateInterval 1s
param *.manager.host "\"localhost\""
param *.manager.port 9999
param *.manager.autoShutdown true
param *.manager.launchConfig "xmldoc(\"erlangen.launchd.xml\")"
param *.manager.moduleType "\"vanets.CarWithMetrics\""
param *.manager.moduleName "\"node\""
param *.manager.moduleDisplayString "\"\""
param *.manager.margin 25
param *.manager.numVehicles 5
param *.manager.debug true
param *.rsu[0].mobility.x 2000
param *.rsu[0].mobility.y 2000
param *.rsu[0].mobility.z 3
param *.rsu[*].applType "\"TraCIDemoRSU11p\""
param *.rsu[*].appl.headerLength "80 bit"
param *.rsu[*].appl.sendBeacons false
param *.rsu[*].appl.dataOnSch false
param *.rsu[*].appl.beaconInterval 1s
param *.rsu[*].appl.beaconUserPriority 7
param *.rsu[*].appl.dataUserPriority 5
param *.metricsApplication.applType "\"TraCIDemoRSU11p\""
param *.metricsApplication.appl.debug false
param *.metricsApplication.appl.headerLength "80 bit"
param *.metricsApplication.appl.sendBeacons false
param *.metricsApplication.appl.dataOnSch false
param *.metricsApplication.appl.beaconInterval 1s
param *.metricsApplication.appl.beaconUserPriority 7
param *.metricsApplication.appl.dataUserPriority 2
param *.connectionManager.sendDirect true
param *.connectionManager.maxInterfDist 2600m
param *.connectionManager.drawMaxIntfDist false
param *.**.nic.mac1609_4.useServiceChannel false
param *.**.nic.mac1609_4.txPower 100mW
param *.**.nic.mac1609_4.bitrate 6Mbps
param *.**.nic.phy80211p.sensitivity -89dBm
param *.**.nic.mac1609_4.queueSize 1
param *.**.nic.phy80211p.useThermalNoise true
param *.**.nic.phy80211p.thermalNoise -110dBm
param *.**.nic.phy80211p.decider "xmldoc(\"config.xml\", \"/root/Decider[@type='Decider80211p']\")"
param *.**.nic.phy80211p.decider.collectCollisionStats true
param *.**.nic.phy80211p.analogueModels "xmldoc(\"config.xml\")"
param *.**.nic.phy80211p.usePropagationDelay true
param *.**.nic.phy80211p.collectCollisionStatistics true
param *.**.nic.phy80211p.antenna "xmldoc(\"antenna.xml\", \"/root/Antenna[@id='monopole']\")"
param *.node[*].applType "\"TraCIDemo11p\""
param *.node[*].appl.headerLength "80 bit"
param *.node[*].appl.sendBeacons false
param *.node[*].appl.dataOnSch false
param *.node[*].appl.beaconInterval 1s
param *.node[*].veinsmobilityType.debug true
param *.node[*].veinsmobility.x 0
param *.node[*].veinsmobility.y 0
param *.node[*].veinsmobility.z 1.895
param *.node[*0].veinsmobility.accidentCount 1
param *.node[*0].veinsmobility.accidentStart 10s
param *.node[*0].veinsmobility.accidentDuration 30s

vector 0 RSUScenario.node[0].veinsmobility posx ETV
vector 1 RSUScenario.node[0].veinsmobility posy ETV
vector 2 RSUScenario.node[0].veinsmobility speed ETV
vector 3 RSUScenario.node[1].veinsmobility posx ETV
vector 4 RSUScenario.node[1].veinsmobility posy ETV
vector 5 RSUScenario.node[2].veinsmobility posx ETV
vector 6 RSUScenario.node[2].veinsmobility posy ETV
vector 7 RSUScenario.node[0].veinsmobility acceleration ETV
vector 8 RSUScenario.node[0].veinsmobility co2emission ETV
vector 9 RSUScenario.node[1].veinsmobility speed ETV
vector 10 RSUScenario.node[2].veinsmobility speed ETV
vector 11 RSUScenario.node[1].veinsmobility acceleration ETV
vector 12 RSUScenario.node[1].veinsmobility co2emission ETV
vector 13 RSUScenario.node[2].veinsmobility acceleration ETV
vector 14 RSUScenario.node[2].veinsmobility co2emission ETV
vector 15 RSUScenario.node[3].veinsmobility posx ETV
vector 16 RSUScenario.node[3].veinsmobility posy ETV
vector 17 RSUScenario.node[3].veinsmobility speed ETV
vector 18 RSUScenario.node[3].veinsmobility acceleration ETV
vector 19 RSUScenario.node[3].veinsmobility co2emission ETV
vector 20 RSUScenario.node[4].veinsmobility posx ETV
vector 21 RSUScenario.node[4].veinsmobility posy ETV
vector 22 RSUScenario.node[4].veinsmobility speed ETV
vector 23 RSUScenario.node[4].veinsmobility acceleration ETV
vector 24 RSUScenario.node[4].veinsmobility co2emission ETV
vector 25 RSUScenario.node[5].veinsmobility posx ETV
vector 26 RSUScenario.node[5].veinsmobility posy ETV
vector 27 RSUScenario.node[5].veinsmobility speed ETV
vector 28 RSUScenario.node[5].veinsmobility acceleration ETV
vector 29 RSUScenario.node[5].veinsmobility co2emission ETV
vector 30 RSUScenario.node[6].veinsmobility posx ETV
vector 31 RSUScenario.node[6].veinsmobility posy ETV
vector 32 RSUScenario.node[6].veinsmobility speed ETV
vector 33 RSUScenario.node[6].veinsmobility acceleration ETV
vector 34 RSUScenario.node[6].veinsmobility co2emission ETV
vector 35 RSUScenario.node[7].veinsmobility posx ETV
vector 36 RSUScenario.node[7].veinsmobility posy ETV
vector 37 RSUScenario.node[7].veinsmobility speed ETV
vector 38 RSUScenario.node[7].veinsmobility acceleration ETV
vector 39 RSUScenario.node[7].veinsmobility co2emission ETV
vector 40 RSUScenario.node[8].veinsmobility posx ETV
vector 41 RSUScenario.node[8].veinsmobility posy ETV
vector 42 RSUScenario.node[8].veinsmobility speed ETV
vector 43 RSUScenario.node[8].veinsmobility acceleration ETV
vector 44 RSUScenario.node[8].veinsmobility co2emission ETV
vector 45 RSUScenario.node[9].veinsmobility posx ETV
vector 46 RSUScenario.node[9].veinsmobility posy ETV
vector 47 RSUScenario.node[9].veinsmobility speed ETV
vector 48 RSUScenario.node[9].veinsmobility acceleration ETV
vector 49 RSUScenario.node[9].veinsmobility co2emission ETV
vector 50 RSUScenario.node[10].veinsmobility posx ETV
vector 51 RSUScenario.node[10].veinsmobility posy ETV
vector 52 RSUScenario.node[10].veinsmobility speed ETV
vector 53 RSUScenario.node[10].veinsmobility acceleration ETV
vector 54 RSUScenario.node[10].veinsmobility co2emission ETV
vector 55 RSUScenario.node[11].veinsmobility posx ETV
vector 56 RSUScenario.node[11].veinsmobility posy ETV
vector 57 RSUScenario.node[11].veinsmobility speed ETV
vector 58 RSUScenario.node[11].veinsmobility acceleration ETV
vector 59 RSUScenario.node[11].veinsmobility co2emission ETV
vector 60 RSUScenario.node[12].veinsmobility posx ETV
vector 61 RSUScenario.node[12].veinsmobility posy ETV
vector 62 RSUScenario.node[12].veinsmobility speed ETV
vector 63 RSUScenario.node[12].veinsmobility acceleration ETV
vector 64 RSUScenario.node[12].veinsmobility co2emission ETV
vector 65 RSUScenario.node[13].veinsmobility posx ETV
vector 66 RSUScenario.node[13].veinsmobility posy ETV
vector 67 RSUScenario.node[13].veinsmobility speed ETV
vector 68 RSUScenario.node[14].veinsmobility posx ETV
vector 69 RSUScenario.node[14].veinsmobility posy ETV
vector 70 RSUScenario.node[13].veinsmobility acceleration ETV
vector 71 RSUScenario.node[13].veinsmobility co2emission ETV
vector 72 RSUScenario.node[14].veinsmobility speed ETV
vector 73 RSUScenario.node[14].veinsmobility acceleration ETV
vector 74 RSUScenario.node[14].veinsmobility co2emission ETV
vector 75 RSUScenario.node[15].veinsmobility posx ETV
vector 76 RSUScenario.node[15].veinsmobility posy ETV
vector 77 RSUScenario.node[15].veinsmobility speed ETV
vector 78 RSUScenario.node[16].veinsmobility posx ETV
vector 79 RSUScenario.node[16].veinsmobility posy ETV
vector 80 RSUScenario.node[15].veinsmobility acceleration ETV
vector 81 RSUScenario.node[15].veinsmobility co2emission ETV
vector 82 RSUScenario.node[16].veinsmobility speed ETV
vector 83 RSUScenario.node[17].veinsmobility posx ETV
vector 84 RSUScenario.node[17].veinsmobility posy ETV
vector 85 RSUScenario.node[16].veinsmobility acceleration ETV
vector 86 RSUScenario.node[16].veinsmobility co2emission ETV
vector 87 RSUScenario.node[17].veinsmobility speed ETV
vector 88 RSUScenario.node[18].veinsmobility posx ETV
vector 89 RSUScenario.node[18].veinsmobility posy ETV
vector 90 RSUScenario.node[17].veinsmobility acceleration ETV
vector 91 RSUScenario.node[17].veinsmobility co2emission ETV
vector 92 RSUScenario.node[18].veinsmobility speed ETV
vector 93 RSUScenario.node[19].veinsmobility posx ETV
vector 94 RSUScenario.node[19].veinsmobility posy ETV
vector 95 RSUScenario.node[18].veinsmobility acceleration ETV
vector 96 RSUScenario.node[18].veinsmobility co2emission ETV
vector 97 RSUScenario.node[19].veinsmobility speed ETV
vector 98 RSUScenario.node[20].veinsmobility posx ETV
vector 99 RSUScenario.node[20].veinsmobility posy ETV
vector 100 RSUScenario.node[19].veinsmobility acceleration ETV
vector 101 RSUScenario.node[19].veinsmobility co2emission ETV
vector 102 RSUScenario.node[20].veinsmobility speed ETV
vector 103 RSUScenario.node[21].veinsmobility posx ETV
vector 104 RSUScenario.node[21].veinsmobility posy ETV
vector 105 RSUScenario.node[20].veinsmobility acceleration ETV
vector 106 RSUScenario.node[20].veinsmobility co2emission ETV
vector 107 RSUScenario.node[21].veinsmobility speed ETV
vector 108 RSUScenario.node[21].veinsmobility acceleration ETV
vector 109 RSUScenario.node[21].veinsmobility co2emission ETV
vector 110 RSUScenario.node[22].veinsmobility posx ETV
vector 111 RSUScenario.node[22].veinsmobility posy ETV
vector 112 RSUScenario.node[22].veinsmobility speed ETV
vector 113 RSUScenario.node[23].veinsmobility posx ETV
vector 114 RSUScenario.node[23].veinsmobility posy ETV
vector 115 RSUScenario.node[22].veinsmobility acceleration ETV
vector 116 RSUScenario.node[22].veinsmobility co2emission ETV
vector 117 RSUScenario.node[23].veinsmobility speed ETV
vector 118 RSUScenario.node[23].veinsmobility acceleration ETV
vector 119 RSUScenario.node[23].veinsmobility co2emission ETV
vector 120 RSUScenario.node[24].veinsmobility posx ETV
vector 121 RSUScenario.node[24].veinsmobility posy ETV
vector 122 RSUScenario.node[24].veinsmobility speed ETV
vector 123 RSUScenario.node[24].veinsmobility acceleration ETV
vector 124 RSUScenario.node[24].veinsmobility co2emission ETV
vector 125 RSUScenario.node[25].veinsmobility posx ETV
vector 126 RSUScenario.node[25].veinsmobility posy ETV
vector 127 RSUScenario.node[25].veinsmobility speed ETV
vector 128 RSUScenario.node[25].veinsmobility acceleration ETV
vector 129 RSUScenario.node[25].veinsmobility co2emission ETV
vector 130 RSUScenario.node[26].veinsmobility posx ETV
vector 131 RSUScenario.node[26].veinsmobility posy ETV
vector 132 RSUScenario.node[26].veinsmobility speed ETV
vector 133 RSUScenario.node[27].veinsmobility posx ETV
vector 134 RSUScenario.node[27].veinsmobility posy ETV
vector 135 RSUScenario.node[26].veinsmobility acceleration ETV
vector 136 RSUScenario.node[26].veinsmobility co2emission ETV
vector 137 RSUScenario.node[27].veinsmobility speed ETV
vector 138 RSUScenario.node[28].veinsmobility posx ETV
vector 139 RSUScenario.node[28].veinsmobility posy ETV
vector 140 RSUScenario.node[27].veinsmobility acceleration ETV
vector 141 RSUScenario.node[27].veinsmobility co2emission ETV
vector 142 RSUScenario.node[28].veinsmobility speed ETV
vector 143 RSUScenario.node[29].veinsmobility posx ETV
vector 144 RSUScenario.node[29].veinsmobility posy ETV
vector 145 RSUScenario.node[28].veinsmobility acceleration ETV
vector 146 RSUScenario.node[28].veinsmobility co2emission ETV
vector 147 RSUScenario.node[29].veinsmobility speed ETV
vector 148 RSUScenario.node[29].veinsmobility acceleration ETV
vector 149 RSUScenario.node[29].veinsmobility co2emission ETV
vector 150 RSUScenario.node[30].veinsmobility posx ETV
vector 151 RSUScenario.node[30].veinsmobility posy ETV
vector 152 RSUScenario.node[30].veinsmobility speed ETV
vector 153 RSUScenario.node[31].veinsmobility posx ETV
vector 154 RSUScenario.node[31].veinsmobility posy ETV
vector 155 RSUScenario.node[30].veinsmobility acceleration ETV
vector 156 RSUScenario.node[30].veinsmobility co2emission ETV
vector 157 RSUScenario.node[31].veinsmobility speed ETV
vector 158 RSUScenario.node[32].veinsmobility posx ETV
vector 159 RSUScenario.node[32].veinsmobility posy ETV
vector 160 RSUScenario.node[31].veinsmobility acceleration ETV
vector 161 RSUScenario.node[31].veinsmobility co2emission ETV
vector 162 RSUScenario.node[32].veinsmobility speed ETV
vector 163 RSUScenario.node[33].veinsmobility posx ETV
vector 164 RSUScenario.node[33].veinsmobility posy ETV
vector 165 RSUScenario.node[32].veinsmobility acceleration ETV
vector 166 RSUScenario.node[32].veinsmobility co2emission ETV
vector 167 RSUScenario.node[33].veinsmobility speed ETV
vector 168 RSUScenario.node[33].veinsmobility acceleration ETV
vector 169 RSUScenario.node[33].veinsmobility co2emission ETV
vector 170 RSUScenario.node[34].veinsmobility posx ETV
vector 171 RSUScenario.node[34].veinsmobility posy ETV
vector 172 RSUScenario.node[34].veinsmobility speed ETV
vector 173 RSUScenario.node[34].veinsmobility acceleration ETV
vector 174 RSUScenario.node[34].veinsmobility co2emission ETV
vector 175 RSUScenario.node[35].veinsmobility posx ETV
vector 176 RSUScenario.node[35].veinsmobility posy ETV
vector 177 RSUScenario.node[35].veinsmobility speed ETV
vector 178 RSUScenario.node[35].veinsmobility acceleration ETV
vector 179 RSUScenario.node[35].veinsmobility co2emission ETV
0	42	1	2414.9014220152
0	104	2	2414.9014220152
0	167	3	2412.0282535021
0	268	4	2407.4201649305
0	371	5	2402.6404752315
0	474	6	2396.4257457455
0	577	7	2388.7924478464
0	680	8	2379.7759597306
0	802	9	2370.0663098968
0	925	10	2360.359168804
0	1049	11	2350.6358953035
0	1172	12	2342.6958009226
0	1314	13	2338.464857918
0	1457	14	2337.0039563243
0	1600	15	2337.0039563243
0	1743	16	2337.0039563243
0	1886	17	2337.0039563243
0	2048	18	2337.0039563243
0	2211	19	2337.0039563243
0	2374	20	2337.0039563243
0	2537	21	2337.0039563243
0	2700	22	2337.0039563243
0	3239	23	2337.0039563243
0	3830	24	2337.0039563243
0	4624	25	2337.0039563243
0	4857	26	2337.0039563243
0	5291	27	2337.0039563243
0	5545	28	2337.0039563243
0	5748	29	2337.0039563243
0	5951	30	2337.0039563243
0	6154	31	2337.0039563243
0	6376	32	2337.0039563243
0	6599	33	2337.0039563243
0	6822	34	2337.0039563243
0	7045	35	2337.0039563243
0	7268	36	2337.0039563243
0	7510	37	2337.0039563243
0	7753	38	2337.0039563243
0	7996	39	2337.0039563243
0	8239	40	2337.0039563243
0	8483	41	2337.0039563243
0	8745	42	2336.2287265159
0	9008	43	2335.0767066063
0	9271	44	2334.2898247647
0	9534	45	2334.2454830399
0	9816	46	2340.1006005734
0	10099	47	2348.186417619
0	10382	48	2357.5234154043
0	10665	49	2369.9840725778
0	10948	50	2383.6784101601
0	11251	51	2397.224992746
0	11554	52	2408.1747850949
0	11857	53	2416.0104933884
0	12160	54	2421.1510561332
0	12463	55	2425.3254593828
0	12766	56	2430.5183302803
0	13069	57	2431.8019002432
0	13372	58	2433.2994419599
0	13675	59	2435.0706449831
0	13978	60	2437.0881074184
0	14878	61	2438.5862911136
0	15964	62	2439.447261164
0	17383	63	2440.4564818722
0	17932	64	2441.4672868163
0	18646	65	2442.4782078667
0	18949	66	2443.4884316043
0	19252	67	2444.4990282598
0	19555	68	2445.5097670765
0	19858	69	2446.521213133
0	20161	70	2447.5319697169
0	20464	71	2448.5433813378
0	20767	72	2449.5546843035
0	21070	73	2450.5660394665
0	21373	74	2449.6519041026
0	21676	75	2448.5405216333
0	21979	76	2447.4288065756
0	22282	77	2446.3146311193
0	22585	78	2445.2013576397
0	22888	79	2444.0868011558
0	23191	80	2442.9737248566
0	23495	81	2441.8608906229
0	23798	82	2440.749429399
0	24101	83	2439.7701940433
0	24423	84	2438.8294528638
0	24746	85	2438.0632184972
0	25088	86	2433.3166566406
0	25431	87	2423.2784446995
0	25774	88	2410.2613424601
0	26136	89	2396.3442964271
0	26499	90	2382.4308127363
0	26881	91	2368.4878715578
0	27264	92	2354.5663087402
0	27666	93	2340.6469100225
0	28069	94	2326.7251182379
0	28491	95	2312.8006643573
0	28914	96	2298.9015648337
0	29356	97	2284.9930701583
0	29799	98	2271.0736905494
0	30261	99	2257.1313442774
0	30724	100	2243.2424768327
0	31206	101	2229.4269612116
0	31689	102	2215.6691768788
0	32172	103	2202.4537499944
0	32674	104	2189.2495913199
0	33177	105	2176.2346057142
0	33699	106	2164.5676763057
0	34222	107	2155.3847143353
0	34746	108	2148.8443665664
0	35269	109	2144.6366616416
0	35811	110	2140.8287833097
0	36354	111	2135.8070666676
0	36897	112	2129.9604021756
0	37440	113	2122.8798681438
0	37983	114	2114.5572698005
0	38526	115	2105.1580923337
0	39069	116	2095.6333187686
0	39612	117	2086.1104788674
0	42015	118	2076.5788732262
0	44728	119	2067.0479179211
0	47884	120	2057.5254386112
0	48695	121	2047.9975734649
0	50177	122	2038.0161642707
0	50720	123	2028.017336461
0	51263	124	2018.0245195506
0	51806	125	2008.0191323914
0	52349	126	1998.016121215
0	52892	127	1988.0115471189
0	53435	128	1978.0102760408
0	53978	129	1968.0198341782
0	54521	130	1958.0270954031
0	55064	131	1948.0344359996
0	55607	132	1938.0399954467
0	56150	133	1928.289072774
0	56693	134	1918.5561681662
0	57236	135	1908.8223878494
0	57779	136	1899.0989434043
0	58322	137	1889.3684495955
0	58866	138	1879.6177655694
0	59409	139	1869.9024007448
0	59952	140	1860.1621480453
0	60514	141	1850.4214125075
0	61077	142	1840.6876903694
0	61640	143	1830.7435202025
0	62222	144	1820.6268609882
0	62805	145	1810.5150700024
0	63407	146	1800.5543073008
0	64010	147	1790.6022798591
0	64632	148	1780.6207613789
0	65255	149	1770.6718996502
0	65897	150	1760.7091423968
0	66540	151	1750.7653267854
0	67183	152	1740.8200492533
0	67845	153	1730.8707589032
0	68508	154	1720.9231394568
0	69190	155	1710.9662185318
0	69873	156	1701.0005656044
0	70575	157	1691.0407853018
0	71278	158	1681.0837094781
0	72000	159	1671.1414330397
0	72723	160	1661.1882796154
0	73446	161	1651.2275823444
0	74189	162	1641.2702810449
0	74932	163	1631.320041135
0	75675	164	1621.3631307797
0	76437	165	1611.5642410694
0	77200	166	1601.7372349665
0	77963	167	1591.9159740389
0	78726	168	1582.0858745275
0	79489	169	1572.2602942559
0	80252	170	1562.4498313204
0	81015	171	1552.0364804416
0	84651	172	1541.487755172
1	42	1	1578.4416120471
1	104	2	1578.4416120471
1	167	3	1579.4966245294
1	268	4	1581.2918909052
1	371	5	1586.1330580954
1	474	6	1592.4277228899
1	577	7	1600.1592020579
1	680	8	1609.2916623587
1	802	9	1619.1261999868
1	925	10	1628.9581966056
1	1049	11	1638.8065331317
1	1172	12	1646.9434299478
1	1314	13	1652.3596955063
1	1457	14	1654.2298769234
1	1600	15	1654.2298769234
1	1743	16	1654.2298769234
1	1886	17	1654.2298769234
1	2048	18	1654.2298769234
1	2211	19	1654.2298769234
1	2374	20	1654.2298769234
1	2537	21	1654.2298769234
1	2700	22	1654.2298769234
1	3239	23	1654.2298769234
1	3830	24	1654.2298769234
1	4624	25	1654.2298769234
1	4857	26	1654.2298769234
1	5291	27	1654.2298769234
1	5545	28	1654.2298769234
1	5748	29	1654.2298769234
1	5951	30	1654.2298769234
1	6154	31	1654.2298769234
1	6376	32	1654.2298769234
1	6599	33	1654.2298769234
1	6822	34	1654.2298769234
1	7045	35	1654.2298769234
1	7268	36	1654.2298769234
1	7510	37	1654.2298769234
1	7753	38	1654.2298769234
1	7996	39	1654.2298769234
1	8239	40	1654.2298769234
1	8483	41	1654.2298769234
1	8745	42	1655.2222917369
1	9008	43	1657.9456549911
1	9271	44	1662.6845627977
1	9534	45	1669.3547402322
1	9816	46	1675.5257770959
1	10099	47	1682.3351897094
1	10382	48	1690.7555281781
1	10665	49	1695.3163935877
1	10948	50	1697.1629776172
1	11251	51	1698.5131741175
1	11554	52	1699.5485501057
1	11857	53	1700.2894686507
1	12160	54	1700.7755431868
1	12463	55	1701.0538796075
1	12766	56	1703.7082022978
1	13069	57	1711.6800893126
1	13372	58	1721.5346752703
1	13675	59	1733.1900917739
1	13978	60	1746.4660204267
1	14878	61	1760.3165920377
1	15964	62	1774.2427299954
1	17383	63	1788.1215048702
1	17932	64	1802.0220661135
1	18646	65	1815.9242240461
1	18949	66	1829.8167925542
1	19252	67	1843.7144894172
1	19555	68	1857.614141277
1	19858	69	1871.5235190801
1	20161	70	1885.4234152734
1	20464	71	1899.3323195186
1	20767	72	1913.2397295404
1	21070	73	1927.1478573792
1	21373	74	1941.022346531
1	21676	75	1954.8938436704
1	21979	76	1968.7694919445
1	22282	77	1982.67584919
1	22585	78	1996.5709485933
1	22888	79	2010.4820615584
1	23191	80	2024.3746998953
1	23495	81	2038.2643169397
1	23798	82	2052.1367970388
1	24101	83	2066.0326825157
1	24423	84	2079.931874997
1	24746	85	2093.814941965
1	25088	86	2106.6680615498
1	25431	87	2115.9888763614
1	25774	88	2120.7495981455
1	26136	89	2120.5327477716
1	26499	90	2120.062807939
1	26881	91	2119.591873155
1	27264	92	2119.121660444
1	27666	93	2118.6515208269
1	28069	94	2118.1813003821
1	28491	95	2117.7109900219
1	28914	96	2117.2415360278
1	29356	97	2116.771764704
1	29799	98	2116.3016257323
1	30261	99	2115.8307110416
1	30724	100	2114.9189395448
1	31206	101	2112.9597926475
1	31689	102	2110.9376255982
1	32172	103	2106.4555681199
1	32674	104	2101.9773322949
1	33177	105	2097.0653428901
1	33699	106	2090.1972057624
1	34222	107	2084.791341044
1	34746	108	2080.9411415812
1	35269	109	2078.4641321292
1	35811	110	2076.22249428
1	36354	111	2071.8694167202
1	36897	112	2065.628095841
1	37440	113	2058.0696178488
1	37983	114	2049.1852348167
1	38526	115	2039.151602366
1	39069	116	2028.9838959407
1	39612	117	2018.8182537043
1	42015	118	2008.6432540296
1	44728	119	1998.4689485896
1	47884	120	1988.3036912847
1	48695	121	1978.1395942429
1	50177	122	1968.4366771253
1	50720	123	1958.7168273907
1	51263	124	1949.0028208438
1	51806	125	1939.2765947729
1	52349	126	1929.5526783913
1	52892	127	1919.8272426976
1	53435	128	1910.1050178632
1	53978	129	1900.3933200985
1	54521	130	1890.6793895075
1	55064	131	1880.9655360738
1	55607	132	1871.2499511857
1	56150	133	1861.2767390972
1	56693	134	1851.3030402139
1	57236	135	1841.3284439566
1	57779	136	1831.3644392835
1	58322	137	1821.3932108432
1	58866	138	1811.4012926742
1	59409	139	1801.4455675129
1	59952	140	1791.464338745
1	60514	141	1781.4826151924
1	61077	142	1771.5080785537
1	61640	143	1761.7593447519
1	62222	144	1752.1510973992
1	62805	145	1742.5474736225
1	63407	146	1732.8265132457
1	64010	147	1723.0734017054
1	64632	148	1713.2913885787
1	65255	149	1703.5413794769
1	65897	150	1693.7777525876
1	66540	151	1684.0326887444
1	67183	152	1674.2861922001
1	67845	153	1664.5357630439
1	68508	154	1654.7869713949
1	69190	155	1645.0290641803
1	69873	156	1635.2625994934
1	70575	157	1625.501890053
1	71278	158	1615.7438310357
1	72000	159	1606.0002756007
1	72723	160	1596.2460605837
1	73446	161	1586.4844525028
1	74189	162	1576.7261725161
1	74932	163	1566.9748127796
1	75675	164	1557.2169159232
1	76437	165	1547.4475584747
1	77200	166	1537.5276500033
1	77963	167	1527.613541021
1	78726	168	1517.6905098967
1	79489	169	1507.7720407359
1	80252	170	1497.8688318273
1	81015	171	1488.5709103867
1	84651	172	1479.446206294
2	104	2	3.9572089270348
2	167	3	5.7820549159715
2	268	4	7.7302297443882
2	371	5	9.7716247113011
2	474	6	11.744415259327
2	577	7	13.76619148129
2	680	8	13.841924947554
2	802	9	13.764495891579
2	925	10	13.848270358313
2	1049	11	9.3482703583129
2	1172	12	4.8482703583129
2	1314	13	0.34827035831288
2	1457	14	0
2	1600	15	0
2	1743	16	0
2	1886	17	0
2	2048	18	0
2	2211	19	0
2	2374	20	0
2	2537	21	0
2	2700	22	0
2	3239	23	0
2	3830	24	0
2	4624	25	0
2	4857	26	0
2	5291	27	0
2	5545	28	0
2	5748	29	0
2	5951	30	0
2	6154	31	0
2	6376	32	0
2	6599	33	0
2	6822	34	0
2	7045	35	0
2	7268	36	0
2	7510	37	0
2	7753	38	0
2	7996	39	0
2	8239	40	0
2	8483	41	2.1789971768166
2	8745	42	3.7740367680506
2	9008	43	5.575608558878
2	9271	44	7.6553368738198
2	9534	45	9.5441982043858
2	9816	46	11.515603678885
2	10099	47	13.461995610043
2	10382	48	13.83510410002
2	10665	49	13.806070872436
2	10948	50	12.764049604514
2	11251	51	9.4940017817461
2	11554	52	6.5957675045291
2	11857	53	4.0593405967148
2	12160	54	5.2138569610717
2	12463	55	7.1429679172754
2	12766	56	8.9073460057156
2	13069	57	10.820612475747
2	13372	58	12.542269266354
2	13675	59	13.876849884731
2	13978	60	13.887214489905
2	14878	61	13.934910027208
2	15964	62	13.906553957739
2	17383	63	13.960905501624
2	17932	64	13.983209668032
2	18646	65	13.957227899625
2	18949	66	13.908804225659
2	19252	67	13.952049605306
2	19555	68	13.952544338708
2	19858	69	13.992219979041
2	20161	70	13.967696913271
2	20464	71	13.883797204795
2	20767	72	13.897642573882
2	21070	73	13.879814323394
2	21373	74	13.926887762889
2	21676	75	13.909341792827
2	21979	76	13.915962943858
2	22282	77	13.920331323505
2	22585	78	13.965044552775
2	22888	79	13.918550422965
2	23191	80	13.892121405962
2	23495	81	13.956195027838
2	23798	82	13.899425330001
2	24101	83	13.94251247871
2	24423	84	13.894538171431
2	24746	85	13.976429536021
2	25088	86	13.900083774633
2	25431	87	13.983062324668
2	25774	88	13.959108240269
2	26136	89	13.941779813047
2	26499	90	13.971127907448
2	26881	91	13.890439723902
2	27264	92	13.938500231765
2	27666	93	13.963729442693
2	28069	94	13.969483743613
2	28491	95	13.880004296277
2	28914	96	13.906548307252
2	29356	97	13.879174707567
2	29799	98	13.902844382187
2	30261	99	13.892296514027
2	30724	100	13.875268009712
2	31206	101	13.879147046413
2	31689	102	13.991565499636
2	32172	103	13.993513979777
2	32674	104	13.975271373154
2	33177	105	12.532423354159
2	33699	106	9.2425641458782
2	34222	107	6.2725038109038
2	34746	108	3.8482509323586
2	35269	109	5.5424043036854
2	35811	110	7.5216751552509
2	36354	111	9.4039907472553
2	36897	112	11.149531905166
2	37440	113	13.05767905741
2	37983	114	13.971064922165
2	38526	115	13.938069529042
2	39069	116	13.943325037714
2	39612	117	13.959028686564
2	42015	118	13.930228446967
2	44728	119	13.94531864427
2	47884	120	13.925848287444
2	48695	121	13.963488768395
2	50177	122	13.929878829145
2	50720	123	13.980783251496
2	51263	124	13.895729042729
2	51806	125	13.934046919066
2	52349	126	13.876895908683
2	52892	127	13.949662328784
2	53435	128	13.911425092348
2	53978	129	13.952560991971
2	54521	130	13.88244527695
2	55064	131	13.926338993781
2	55607	132	13.92488924965
2	56150	133	13.946270002834
2	56693	134	13.977201427084
2	57236	135	13.936869718458
2	57779	136	13.967613859014
2	58322	137	13.937818845243
2	58866	138	13.988119428735
2	59409	139	13.995526027011
2	59952	140	13.941639854314
2	60514	141	13.888207115505
2	61077	142	13.95132222631
2	61640	143	13.982666481249
2	62222	144	13.994946417341
2	62805	145	13.943133438774
2	63407	146	13.929932394365
2	64010	147	13.949743744121
2	64632	148	13.901079239249
2	65255	149	13.97621734886
2	65897	150	13.905990498702
2	66540	151	13.89157623372
2	67183	152	13.978231847861
2	67845	153	13.891631044499
2	68508	154	13.901711776878
2	69190	155	13.906411395415
2	69873	156	13.969675573376
2	70575	157	13.871340291591
2	71278	158	13.897450778473
2	72000	159	13.941722842345
2	72723	160	13.890708665592
2	73446	161	13.959401331118
2	74189	162	13.919066663221
2	74932	163	13.89065273856
2	75675	164	13.907796227948
2	76437	165	13.958324237079
2	77200	166	13.931338407556
2	77963	167	13.923741136359
2	78726	168	13.885887903052
2	79489	169	13.926400452529
2	80252	170	13.95870487229
2	81015	171	13.999302774302
2	84651	172	13.947866068876
3	167	3	2416.8747497495
3	268	4	2416.8747497495
3	371	5	2415.6002000981
3	474	6	2414.3281640426
3	577	7	2413.0554948545
3	680	8	2411.7812762286
3	802	9	2410.5004514904
3	925	10	2409.2368213922
3	1049	11	2407.9640548977
3	1172	12	2406.9251247832
3	1314	13	2405.9687190097
3	1457	14	2405.0185326763
3	1600	15	2404.0686406194
3	1743	16	2403.1224230581
3	1886	17	2402.17289582
3	2048	18	2401.2217293936
3	2211	19	2400.2682865061
3	2374	20	2399.3183168358
3	2537	21	2398.3732882985
3	2700	22	2397.4168837633
3	3239	23	2396.4719894292
3	3830	24	2395.5191194662
3	4624	25	2394.5608251516
3	4857	26	2393.6102562937
3	5291	27	2392.6517005817
3	5545	28	2391.6962720912
3	5748	29	2390.7330325113
3	5951	30	2389.7825122462
3	6154	31	2388.8282975069
3	6376	32	2387.8851160276
3	6599	33	2386.9334642636
3	6822	34	2385.9891486663
3	7045	35	2385.0311330704
3	7268	36	2384.0773834917
3	7510	37	2383.125300062
3	7753	38	2382.1755019099
3	7996	39	2381.231474062
3	8239	40	2380.2775561642
3	8483	41	2379.3241869321
3	8745	42	2378.3702363715
3	9008	43	2377.4203209159
3	9271	44	2376.4707705836
3	9534	45	2375.5163914518
3	9816	46	2374.5681507556
3	10099	47	2373.6297244157
3	10382	48	2372.687104219
3	10665	49	2371.7336986056
3	10948	50	2370.7824607026
3	11251	51	2369.8331079908
3	11554	52	2368.8799346298
3	11857	53	2367.9277406937
3	12160	54	2366.9798054169
3	12463	55	2366.0291049696
3	12766	56	2365.0780689444
3	13069	57	2364.127662129
3	13372	58	2363.1733839394
3	13675	59	2362.2284722524
3	13978	60	2361.2835656346
3	14878	61	2360.3355695854
3	15964	62	2359.3855190012
3	17383	63	2358.4354592614
3	17932	64	2357.4924836609
3	18646	65	2356.5391109755
3	18949	66	2355.5878257293
3	19252	67	2354.6397771821
3	19555	68	2353.6834821389
3	19858	69	2352.7238672166
3	20161	70	2351.7738825715
3	20464	71	2350.8196669708
3	20767	72	2349.871283224
3	21070	73	2348.9161912369
3	21373	74	2347.9703203003
3	21676	75	2347.0239080738
3	21979	76	2346.0740145132
3	22282	77	2345.1233899699
3	22585	78	2344.1703106295
3	22888	79	2343.2239855878
3	23191	80	2342.3658590886
3	23495	81	2341.5287493365
3	23798	82	2340.6932692138
3	24101	83	2339.8565117687
3	24423	84	2339.0238199212
3	24746	85	2338.1864626638
3	25088	86	2337.3514091617
3	25431	87	2336.5129269776
3	25774	88	2335.6805490615
3	26136	89	2335.2079708927
3	26499	90	2334.984241019
3	26881	91	2334.7630928379
3	27264	92	2334.5422355239
3	27666	93	2334.3216562492
3	28069	94	2334.100595751
3	28491	95	2333.9476648499
3	28914	96	2333.8526697163
3	29356	97	2333.9580261827
3	29799	98	2334.1674450599
3	30261	99	2334.7428206274
3	30724	100	2335.4740695764
3	31206	101	2336.3876004253
3	31689	102	2337.4183594512
3	32172	103	2338.4743035475
3	32674	104	2339.5161468997
3	33177	105	2340.5727060157
3	33699	106	2341.6242199619
3	34222	107	2342.6714337772
3	34746	108	2343.7251200246
3	35269	109	2344.7811176713
3	35811	110	2345.8074355213
3	36354	111	2346.8142690971
3	36897	112	2347.8180245182
3	37440	113	2348.8239353312
3	37983	114	2349.8364104903
3	38526	115	2350.8451268479
3	39069	116	2351.8530392733
3	39612	117	2352.8549590725
3	42015	118	2353.8654751752
3	44728	119	2354.863866056
3	47884	120	2355.8663981539
3	48695	121	2356.8760062956
3	50177	122	2357.8805727215
3	50720	123	2358.8834054472
3	51263	124	2359.885980079
3	51806	125	2360.8868902212
3	52349	126	2362.1370907387
3	52892	127	2363.4810170053
3	53435	128	2364.8174032213
3	53978	129	2366.1453008045
3	54521	130	2367.4869310765
3	55064	131	2368.8303987023
3	55607	132	2370.1607464164
3	56150	133	2371.4967430758
3	56693	134	2372.8357483989
3	57236	135	2374.1701501579
3	57779	136	2375.5032820149
3	58322	137	2376.840920457
3	58866	138	2378.1890631642
3	59409	139	2379.5347392963
3	59952	140	2380.8771076815
3	60514	141	2382.2213482631
3	61077	142	2383.5786056082
3	61640	143	2384.9237418104
3	62222	144	2386.2732257944
3	62805	145	2387.6375167192
3	63407	146	2388.9838066903
3	64010	147	2390.3305836029
3	64632	148	2391.6836900857
3	65255	149	2393.0353311817
3	65897	150	2394.3849901252
3	66540	151	2395.7270290715
3	67183	152	2397.0642191827
3	67845	153	2398.395483505
3	68508	154	2399.746207126
3	69190	155	2401.0816964376
3	69873	156	2402.4278784266
3	70575	157	2403.7777843557
3	71278	158	2405.1240242054
3	72000	159	2406.4713749142
3	72723	160	2407.8130875573
3	73446	161	2409.1605559712
3	74189	162	2410.5071713568
3	74932	163	2411.860426105
3	75675	164	2413.2142687982
3	76437	165	2414.5592621261
3	77200	166	2415.9066884929
3	77963	167	2417.2640352952
3	78726	168	2418.6136839146
3	79489	169	2419.9615423884
3	80252	170	2421.2984206636
3	81015	171	2422.661337449
3	84651	172	2424.0477830019
4	167	3	1577.7170164017
4	268	4	1577.7170164017
4	371	5	1578.1850243816
4	474	6	1578.6521093827
4	577	7	1579.1194268661
4	680	8	1579.5873132953
4	802	9	1580.0576254549
4	925	10	1580.5216238322
4	1049	11	1580.9889770458
4	1172	12	1581.7932983758
4	1314	13	1582.7620056644
4	1457	14	1583.7244135169
4	1600	15	1584.686523309
4	1743	16	1585.6449113423
4	1886	17	1586.6066516228
4	2048	18	1587.5700521749
4	2211	19	1588.5357584683
4	2374	20	1589.4979468714
4	2537	21	1590.4551305873
4	2700	22	1591.4238366224
4	3239	23	1592.380884409
4	3830	24	1593.3460104093
4	4624	25	1594.3166305302
4	4857	26	1595.2794258278
4	5291	27	1596.2503107078
4	5545	28	1597.218028144
4	5748	29	1598.1936571375
4	5951	30	1599.1564032175
4	6154	31	1600.1228912901
4	6376	32	1601.0782041913
4	6599	33	1602.0420963233
4	6822	34	1602.9985579289
4	7045	35	1603.9688957464
4	7268	36	1604.934912676
4	7510	37	1605.8992420258
4	7753	38	1606.8612567047
4	7996	39	1607.8174268603
4	8239	40	1608.7836142741
4	8483	41	1609.7492459649
4	8745	42	1610.7154664611
4	9008	43	1611.6775999526
4	9271	44	1612.6393636242
4	9534	45	1613.6060182042
4	9816	46	1614.566455395
4	10099	47	1615.516951994
4	10382	48	1616.4716963936
4	10665	49	1617.4373649331
4	10948	50	1618.4008378815
4	11251	51	1619.3624013904
4	11554	52	1620.3278346909
4	11857	53	1621.2922759689
4	12160	54	1622.2524038116
4	12463	55	1623.2153323907
4	12766	56	1624.1786008645
4	13069	57	1625.1412320351
4	13372	58	1626.1077843755
4	13675	59	1627.064849738
4	13978	60	1628.0219099661
4	14878	61	1628.9820993636
4	15964	62	1629.9443697212
4	17383	63	1630.9066493521
4	17932	64	1631.8617537264
4	18646	65	1632.8273889143
4	18949	66	1633.7909098146
4	19252	67	1634.751152385
4	19555	68	1635.7197475191
4	19858	69	1636.6917052334
4	20161	70	1637.6539088041
4	20464	71	1638.6203977503
4	20767	72	1639.5809798306
4	21070	73	1640.5483564353
4	21373	74	1641.5063933861
4	21676	75	1642.4649785887
4	21979	76	1643.4270899026
4	22282	77	1644.389941602
4	22585	78	1645.3552796729
4	22888	79	1646.3137765694
4	23191	80	1647.3658068478
4	23495	81	1648.43743762
4	23798	82	1649.5069822129
4	24101	83	1650.5781619772
4	24423	84	1651.6441371441
4	24746	85	1652.7160847615
4	25088	86	1653.7850832138
4	25431	87	1654.8584709121
4	25774	88	1655.9240441984
4	26136	89	1657.1551305205
4	26499	90	1658.5025186399
4	26881	91	1659.8343588049
4	27264	92	1661.1644472564
4	27666	93	1662.4928612467
4	28069	94	1663.8241733508
4	28491	95	1665.1714146268
4	28914	96	1666.5171790188
4	29356	97	1667.8554803589
4	29799	98	1669.1837943792
4	30261	99	1670.3988668351
4	30724	100	1671.5159210823
4	31206	101	1672.499723535
4	31689	102	1673.3597060861
4	32172	103	1674.212444446
4	32674	104	1675.0537956068
4	33177	105	1675.9070306318
4	33699	106	1676.7561913785
4	34222	107	1677.601879511
4	34746	108	1678.452794522
4	35269	109	1679.3055761261
4	35811	110	1680.1897640666
4	36354	111	1681.0977518037
4	36897	112	1682.0029635839
4	37440	113	1682.9101191498
4	37983	114	1683.8231946081
4	38526	115	1684.732880285
4	39069	116	1685.6418409562
4	39612	117	1686.5453973264
4	42015	118	1687.4567060582
4	44728	119	1688.3570799613
4	47884	120	1689.2611885183
4	48695	121	1690.1716784276
4	50177	122	1691.0776215922
4	50720	123	1691.9820012627
4	51263	124	1692.8861481771
4	51806	125	1693.7887940137
4	52349	126	1694.1435176274
4	52892	127	1694.3443921609
4	53435	128	1694.5441396935
4	53978	129	1694.7426184444
4	54521	130	1694.9431497985
4	55064	131	1695.1439557783
4	55607	132	1695.3428007467
4	56150	133	1695.542490053
4	56693	134	1695.7426290605
4	57236	135	1695.9420799799
4	57779	136	1696.1413410893
4	58322	137	1696.3412757907
4	58866	138	1696.5096228207
4	59409	139	1696.6697883112
4	59952	140	1696.8295601066
4	60514	141	1696.9895547349
4	61077	142	1697.1510986481
4	61640	143	1697.3111998755
4	62222	144	1697.4718185859
4	62805	145	1697.6066142349
4	63407	146	1697.7339149425
4	64010	147	1697.8612616928
4	64632	148	1697.9892069474
4	65255	149	1698.1170136388
4	65897	150	1698.2446329044
4	66540	151	1698.3715316495
4	67183	152	1698.4979719035
4	67845	153	1698.6238518357
4	68508	154	1698.7515717736
4	69190	155	1698.8778512068
4	69873	156	1699.0051417034
4	70575	157	1699.1327843228
4	71278	158	1699.260080291
4	72000	159	1699.3874812983
4	72723	160	1699.5143491887
4	73446	161	1699.6417613253
4	74189	162	1699.769092802
4	74932	163	1699.8970520757
4	75675	164	1700.0250669429
4	76437	165	1700.1522450438
4	77200	166	1700.2796532046
4	77963	167	1700.4079994094
4	78726	168	1700.5356176989
4	79489	169	1700.6630667187
4	80252	170	1700.7894774871
4	81015	171	1700.8996097408
4	84651	172	1700.979893893
5	167	3	2417.7530272038
5	268	4	2417.7530272038
5	371	5	2416.9079823116
5	474	6	2415.8520680969
5	577	7	2414.6933047521
5	680	8	2413.4791391375
5	802	9	2412.2330134186
5	925	10	2410.9836899705
5	1049	11	2409.7197393461
5	1172	12	2408.4562196471
5	1314	13	2407.288771951
5	1457	14	2406.3384678784
5	1600	15	2405.3890267978
5	1743	16	2404.4377900739
5	1886	17	2403.4911833609
5	2048	18	2402.5474561029
5	2211	19	2401.6005785749
5	2374	20	2400.6446088231
5	2537	21	2399.6966619666
5	2700	22	2398.7399867488
5	3239	23	2397.7995208969
5	3830	24	2396.8454291746
5	4624	25	2395.8919360953
5	4857	26	2394.947016882
5	5291	27	2393.9963012602
5	5545	28	2393.0416283123
5	5748	29	2392.0852459886
5	5951	30	2391.127151067
5	6154	31	2390.1759814052
5	6376	32	2389.2192925877
5	6599	33	2388.2682715083
5	6822	34	2387.3263844843
5	7045	35	2386.3828783856
5	7268	36	2385.4308874678
5	7510	37	2384.4678455902
5	7753	38	2383.5171567436
5	7996	39	2382.5637628442
5	8239	40	2381.6099607117
5	8483	41	2380.6546404584
5	8745	42	2379.6979881511
5	9008	43	2378.7452148161
5	9271	44	2377.794884816
5	9534	45	2376.846263434
5	9816	46	2375.8981723785
5	10099	47	2374.9513140537
5	10382	48	2373.9995125312
5	10665	49	2373.0533069496
5	10948	50	2372.1031207584
5	11251	51	2371.1545864925
5	11554	52	2370.2016827414
5	11857	53	2369.2535830847
5	12160	54	2368.3035105288
5	12463	55	2367.3508908136
5	12766	56	2366.396588558
5	13069	57	2365.4465923639
5	13372	58	2364.4985266321
5	13675	59	2363.5489506882
5	13978	60	2362.6017399403
5	14878	61	2361.6451977812
5	15964	62	2360.6982126436
5	17383	63	2359.7457334069
5	17932	64	2358.8070934527
5	18646	65	2357.8608538315
5	18949	66	2356.9052735609
5	19252	67	2355.9606252249
5	19555	68	2355.0110646759
5	19858	69	2354.0647190467
5	20161	70	2353.1163275221
5	20464	71	2352.1624534203
5	20767	72	2351.206864536
5	21070	73	2350.2512524774
5	21373	74	2349.3001063224
5	21676	75	2348.3495667309
5	21979	76	2347.3992218926
5	22282	77	2346.4602529277
5	22585	78	2345.5043143076
5	22888	79	2344.5535199796
5	23191	80	2343.5982360608
5	23495	81	2342.6963223517
5	23798	82	2341.8626775516
5	24101	83	2341.0363548853
5	24423	84	2340.1985326499
5	24746	85	2339.3705382036
5	25088	86	2338.531540553
5	25431	87	2337.7006630972
5	25774	88	2336.8620468242
5	26136	89	2336.025721711
5	26499	90	2335.3000989715
5	26881	91	2335.0789146468
5	27264	92	2334.8559325403
5	27666	93	2334.6353123323
5	28069	94	2334.4135118457
5	28491	95	2334.1910833732
5	28914	96	2333.9874825941
5	29356	97	2333.8924389924
5	29799	98	2333.8718985597
5	30261	99	2334.08327147
5	30724	100	2334.5194134823
5	31206	101	2335.1150625992
5	31689	102	2336.0298077506
5	32172	103	2337.0095876589
5	32674	104	2338.0575819437
5	33177	105	2339.1101304218
5	33699	106	2340.164550988
5	34222	107	2341.2090398408
5	34746	108	2342.2617313787
5	35269	109	2343.3155871199
5	35811	110	2344.3737857388
5	36354	111	2345.4232139
5	36897	112	2346.4292960553
5	37440	113	2347.4340100434
5	37983	114	2348.4373761399
5	38526	115	2349.4369657863
5	39069	116	2350.4512709655
5	39612	117	2351.4573972045
5	42015	118	2352.4604350803
5	44728	119	2353.4607479315
5	47884	120	2354.4613804002
5	48695	121	2355.4685790311
5	50177	122	2356.4797208513
5	50720	123	2357.4796252527
5	51263	124	2358.4833856706
5	51806	125	2359.4853329909
5	52349	126	2360.4901664441
5	52892	127	2361.6215542618
5	53435	128	2362.9537083794
5	53978	129	2364.2929839439
5	54521	130	2365.62396003
5	55064	131	2366.9600115948
5	55607	132	2368.3030562614
5	56150	133	2369.6327786513
5	56693	134	2370.9715667996
5	57236	135	2372.3124095395
5	57779	136	2373.6486122567
5	58322	137	2374.9760795317
5	58866	138	2376.3174748587
5	59409	139	2377.658354439
5	59952	140	2379.011365005
5	60514	141	2380.35402269
5	61077	142	2381.7014832258
5	61640	143	2383.0532562041
5	62222	144	2384.3895859463
5	62805	145	2385.7473006798
5	63407	146	2387.0897651146
5	64010	147	2388.4408397041
5	64632	148	2389.7933309164
5	65255	149	2391.1343561511
5	65897	150	2392.4919485273
5	66540	151	2393.8468384506
5	67183	152	2395.1922860378
5	67845	153	2396.5353083167
5	68508	154	2397.8691488123
5	69190	155	2399.2155013506
5	69873	156	2400.5621019769
5	70575	157	2401.908491642
5	71278	158	2403.2530691839
5	72000	159	2404.595612633
5	72723	160	2405.9419996876
5	73446	161	2407.2976969637
5	74189	162	2408.6515268345
5	74932	163	2409.9970657292
5	75675	164	2411.3450188366
5	76437	165	2412.6818125454
5	77200	166	2414.0330274424
5	77963	167	2415.3886845738
5	78726	168	2416.7438160377
5	79489	169	2418.1013270187
5	80252	170	2419.4443596319
5	81015	171	2420.7816043155
5	84651	172	2422.1222283593
6	167	3	1577.3945175046
6	268	4	1577.3945175046
6	371	5	1577.7048135782
6	474	6	1578.0925397668
6	577	7	1578.5180316195
6	680	8	1578.9638668969
6	802	9	1579.4214377571
6	925	10	1579.8801828064
6	1049	11	1580.3442988796
6	1172	12	1580.8082567183
6	1314	13	1581.424973892
6	1457	14	1582.3875009995
6	1600	15	1583.3491540132
6	1743	16	1584.3126257677
6	1886	17	1585.2714079581
6	2048	18	1586.2272736579
6	2211	19	1587.1863301462
6	2374	20	1588.1545958053
6	2537	21	1589.114735377
6	2700	22	1590.0837155757
6	3239	23	1591.03627792
6	3830	24	1592.0026413938
6	4624	25	1592.9683985244
6	4857	26	1593.9254715107
6	5291	27	1594.8884154605
6	5545	28	1595.8553676354
6	5748	29	1596.8240511725
6	5951	30	1597.794469336
6	6154	31	1598.7578731654
6	6376	32	1599.7268671384
6	6599	33	1600.6901204744
6	6822	34	1601.6441222699
6	7045	35	1602.5997639662
6	7268	36	1603.5639996147
6	7510	37	1604.5394283626
6	7753	38	1605.5023451922
6	7996	39	1606.4680018676
6	8239	40	1607.434072027
6	8483	41	1608.4016798334
6	8745	42	1609.3706368273
6	9008	43	1610.3356649559
6	9271	44	1611.2982183238
6	9534	45	1612.2590410961
6	9816	46	1613.2193267215
6	10099	47	1614.17836376
6	10382	48	1615.1424075775
6	10665	49	1616.1007834775
6	10948	50	1617.0631911857
6	11251	51	1618.0239257226
6	11554	52	1618.9890859453
6	11857	53	1619.9493802823
6	12160	54	1620.9116728939
6	12463	55	1621.8765454274
6	12766	56	1622.8431221424
6	13069	57	1623.8053374104
6	13372	58	1624.7655973863
6	13675	59	1625.7273869989
6	13978	60	1626.6867809938
6	14878	61	1627.6556264227
6	15964	62	1628.6147919046
6	17383	63	1629.5795221534
6	17932	64	1630.5302351145
6	18646	65	1631.4886454921
6	18949	66	1632.4565166598
6	19252	67	1633.413315285
6	19555	68	1634.3750893045
6	19858	69	1635.3336070525
6	20161	70	1636.2941970117
6	20464	71	1637.2603400657
6	20767	72	1638.228219959
6	21070	73	1639.1961233234
6	21373	74	1640.1595033444
6	21676	75	1641.122268999
6	21979	76	1642.0848373957
6	22282	77	1643.035883599
6	22585	78	1644.0041177263
6	22888	79	1644.9671413936
6	23191	80	1645.9347123988
6	23495	81	1646.9427624373
6	23798	82	1648.0099575315
6	24101	83	1649.0677791545
6	24423	84	1650.1403220166
6	24746	85	1651.2002837788
6	25088	86	1652.2743313545
6	25431	87	1653.3379838178
6	25774	88	1654.4115431709
6	26136	89	1655.4821694829
6	26499	90	1656.6002994785
6	26881	91	1657.932357315
6	27264	92	1659.2752420902
6	27666	93	1660.603902596
6	28069	94	1661.9396711988
6	28491	95	1663.2792217759
6	28914	96	1664.6073299181
6	29356	97	1665.9537809417
6	29799	98	1667.3091851501
6	30261	99	1668.6498933248
6	30724	100	1669.926150267
6	31206	101	1671.1292981841
6	31689	102	1672.1144083468
6	32172	103	1673.0295982817
6	32674	104	1673.8759166906
6	33177	105	1674.7259128839
6	33699	106	1675.5774209015
6	34222	107	1676.4209084632
6	34746	108	1677.2710201861
6	35269	109	1678.1220720727
6	35811	110	1678.9766310947
6	36354	111	1679.8432633849
6	36897	112	1680.7505734721
6	37440	113	1681.6566497115
6	37983	114	1682.5615103897
6	38526	115	1683.4629653692
6	39069	116	1684.3776911851
6	39612	117	1685.2850410286
6	42015	118	1686.1896057082
6	44728	119	1687.0917128921
6	47884	120	1687.9941083156
6	48695	121	1688.9024252687
6	50177	122	1689.814298288
6	50720	123	1690.7160371225
6	51263	124	1691.6212534085
6	51806	125	1692.5248345975
6	52349	126	1693.4310185742
6	52892	127	1694.0664612064
6	53435	128	1694.2655761745
6	53978	129	1694.4657555744
6	54521	130	1694.6646944638
6	55064	131	1694.864391977
6	55607	132	1695.0651347386
6	56150	133	1695.2638862403
6	56693	134	1695.4639927866
6	57236	135	1695.664406429
6	57779	136	1695.8641265351
6	58322	137	1696.0625409679
6	58866	138	1696.2630372047
6	59409	139	1696.4464566391
6	59952	140	1696.6074950909
6	60514	141	1696.7673013192
6	61077	142	1696.9276791932
6	61640	143	1697.0885703452
6	62222	144	1697.2476234073
6	62805	145	1697.40922176
6	63407	146	1697.5548206633
6	64010	147	1697.6825737879
6	64632	148	1697.8104608636
6	65255	149	1697.9372637551
6	65897	150	1698.0656331796
6	66540	151	1698.1937470697
6	67183	152	1698.3209681241
6	67845	153	1698.4479598496
6	68508	154	1698.5740833757
6	69190	155	1698.7013899991
6	69873	156	1698.8287200807
6	70575	157	1698.9560302142
6	71278	158	1699.0831690002
6	72000	159	1699.2101154486
6	72723	160	1699.3374253353
6	73446	161	1699.4656155659
6	74189	162	1699.5936292205
6	74932	163	1699.7208589092
6	75675	164	1699.8483168762
6	76437	165	1699.9747196492
6	77200	166	1700.1024860404
6	77963	167	1700.230672475
6	78726	168	1700.3588092048
6	79489	169	1700.4871709328
6	80252	170	1700.6141636353
6	81015	171	1700.7406090498
6	84651	172	1700.8673740057
7	167	3	1.8248459889367
7	268	4	1.9481748284167
7	371	5	2.0413949669129
7	474	6	1.9727905480261
7	577	7	2.0217762219626
7	680	8	0.075733466263939
7	802	9	-0.077429055974353
7	925	10	0.083774466733448
7	1049	11	-4.5
7	1172	12	-4.5
7	1314	13	-4.5
7	1457	14	-0.34827035831288
7	1600	15	0
7	1743	16	0
7	1886	17	0
7	2048	18	0
7	2211	19	0
7	2374	20	0
7	2537	21	0
7	2700	22	0
7	3239	23	0
7	3830	24	0
7	4624	25	0
7	4857	26	0
7	5291	27	0
7	5545	28	0
7	5748	29	0
7	5951	30	0
7	6154	31	0
7	6376	32	0
7	6599	33	0
7	6822	34	0
7	7045	35	0
7	7268	36	0
7	7510	37	0
7	7753	38	0
7	7996	39	0
7	8239	40	0
7	8483	41	2.1789971768166
7	8745	42	1.595039591234
7	9008	43	1.8015717908274
7	9271	44	2.0797283149417
7	9534	45	1.888861330566
7	9816	46	1.9714054744993
7	10099	47	1.9463919311576
7	10382	48	0.373108489977
7	10665	49	-0.029033227583859
7	10948	50	-1.0420212679218
7	11251	51	-3.2700478227679
7	11554	52	-2.8982342772171
7	11857	53	-2.5364269078143
7	12160	54	1.1545163643569
7	12463	55	1.9291109562037
7	12766	56	1.7643780884403
7	13069	57	1.9132664700318
7	13372	58	1.7216567906062
7	13675	59	1.3345806183771
7	13978	60	0.0103646051744
7	14878	61	0.047695537302642
7	15964	62	-0.028356069468426
7	17383	63	0.054351543884257
7	17932	64	0.022304166408722
7	18646	65	-0.025981768406927
7	18949	66	-0.0484236739669
7	19252	67	0.043245379647706
7	19555	68	0.00049473340157391
7	19858	69	0.039675640333444
7	20161	70	-0.024523065770044
7	20464	71	-0.083899708476384
7	20767	72	0.013845369087067
7	21070	73	-0.017828250487801
7	21373	74	0.047073439494707
7	21676	75	-0.017545970061327
7	21979	76	0.0066211510309948
7	22282	77	0.0043683796469125
7	22585	78	0.044713229269254
7	22888	79	-0.046494129810016
7	23191	80	-0.026429017002229
7	23495	81	0.064073621875142
7	23798	82	-0.056769697836135
7	24101	83	0.04308714870829
7	24423	84	-0.047974307278636
7	24746	85	0.081891364590264
7	25088	86	-0.076345761388074
7	25431	87	0.08297855003504
7	25774	88	-0.023954084399156
7	26136	89	-0.017328427222091
7	26499	90	0.029348094400484
7	26881	91	-0.080688183545135
7	27264	92	0.048060507862829
7	27666	93	0.025229210928082
7	28069	94	0.0057543009193619
7	28491	95	-0.089479447335471
7	28914	96	0.026544010974467
7	29356	97	-0.027373599684797
7	29799	98	0.023669674620033
7	30261	99	-0.010547868160065
7	30724	100	-0.017028504314368
7	31206	101	0.0038790367008197
7	31689	102	0.11241845322307
7	32172	103	0.0019484801404186
7	32674	104	-0.018242606623099
7	33177	105	-1.4428480189948
7	33699	106	-3.2898592082806
7	34222	107	-2.9700603349744
7	34746	108	-2.4242528785452
7	35269	109	1.6941533713267
7	35811	110	1.9792708515655
7	36354	111	1.8823155920045
7	36897	112	1.7455411579111
7	37440	113	1.9081471522432
7	37983	114	0.91338586475509
7	38526	115	-0.032995393122546
7	39069	116	0.005255508671981
7	39612	117	0.015703648850321
7	42015	118	-0.028800239597913
7	44728	119	0.015090197303799
7	47884	120	-0.019470356826206
7	48695	121	0.037640480950941
7	50177	122	-0.033609939250164
7	50720	123	0.050904422351159
7	51263	124	-0.085054208766669
7	51806	125	0.038317876337096
7	52349	126	-0.057151010383386
7	52892	127	0.072766420100816
7	53435	128	-0.038237236435526
7	53978	129	0.041135899622459
7	54521	130	-0.070115715020801
7	55064	131	0.043893716831226
7	55607	132	-0.0014497441309516
7	56150	133	0.021380753184204
7	56693	134	0.030931424249429
7	57236	135	-0.040331708625891
7	57779	136	0.030744140555617
7	58322	137	-0.029795013770928
7	58866	138	0.050300583492499
7	59409	139	0.0074065982759937
7	59952	140	-0.053886172696949
7	60514	141	-0.053432738808915
7	61077	142	0.063115110804793
7	61640	143	0.031344254938885
7	62222	144	0.01227993609151
7	62805	145	-0.051812978566158
7	63407	146	-0.013201044409071
7	64010	147	0.019811349755619
7	64632	148	-0.048664504871704
7	65255	149	0.075138109610416
7	65897	150	-0.070226850158068
7	66540	151	-0.01441426498117
7	67183	152	0.086655614140909
7	67845	153	-0.086600803362671
7	68508	154	0.010080732379574
7	69190	155	0.0046996185369785
7	69873	156	0.063264177960809
7	70575	157	-0.098335281785111
7	71278	158	0.026110486881807
7	72000	159	0.044272063872777
7	72723	160	-0.051014176753814
7	73446	161	0.068692665526177
7	74189	162	-0.040334667896387
7	74932	163	-0.028413924660999
7	75675	164	0.017143489387818
7	76437	165	0.050528009131085
7	77200	166	-0.026985829523765
7	77963	167	-0.0075972711970103
7	78726	168	-0.037853233306668
7	79489	169	0.040512549476698
7	80252	170	0.032304419761058
7	81015	171	0.040597902012523
7	84651	172	-0.051436705426314
8	167	3	3.9496614672806
8	268	4	5.155000161121
8	371	5	6.4749830476185
8	474	6	7.4099916151615
8	577	7	8.7226296737065
8	680	8	2.2753718136682
8	802	9	1.7580575807672
8	925	10	2.3029671227101
8	1049	11	0.973
8	1172	12	0.973
8	1314	13	0.973
8	1457	14	0.973
8	1600	15	0.973
8	1743	16	0.973
8	1886	17	0.973
8	2048	18	0.973
8	2211	19	0.973
8	2374	20	0.973
8	2537	21	0.973
8	2700	22	0.973
8	3239	23	0.973
8	3830	24	0.973
8	4624	25	0.973
8	4857	26	0.973
8	5291	27	0.973
8	5545	28	0.973
8	5748	29	0.973
8	5951	30	0.973
8	6154	31	0.973
8	6376	32	0.973
8	6599	33	0.973
8	6822	34	0.973
8	7045	35	0.973
8	7268	36	0.973
8	7510	37	0.973
8	7753	38	0.973
8	7996	39	0.973
8	8239	40	0.973
8	8483	41	2.3603454861379
8	8745	42	2.7477822282131
8	9008	43	3.8157905443475
8	9271	44	5.3577038540022
8	9534	45	5.9953938093247
8	9816	46	7.2777458388171
8	10099	47	8.2995382537311
8	10382	48	3.2660819540101
8	10665	49	1.9225025694479
8	10948	50	0.973
8	11251	51	0.973
8	11554	52	0.973
8	11857	53	0.973
8	12160	54	2.8253052343639
8	12463	55	4.8091223294926
8	12766	56	5.39251420517
8	13069	57	6.7383790282162
8	13372	58	7.1013325505267
8	13675	59	6.4895419419682
8	13978	60	2.0620181787479
8	14878	61	2.1923650690602
8	15964	62	1.934262953515
8	17383	63	2.2177141081629
8	17932	64	2.1122907484255
8	18646	65	1.9470734185574
8	18949	66	1.8672097054562
8	19252	67	2.1793489887112
8	19555	68	2.0356529520939
8	19858	69	2.1718411913061
8	20161	70	1.952988816278
8	20464	71	1.7462542598402
8	20767	72	2.0747632805733
8	21070	73	1.9669413072244
8	21373	74	2.1893663968921
8	21676	75	1.9707649236743
8	21979	76	2.0524619205125
8	22282	77	2.0453565431945
8	22585	78	2.1857531550644
8	22888	79	1.8745614223855
8	23191	80	1.9393444050163
8	23495	81	2.2498704745493
8	23798	82	1.8384070350501
8	24101	83	2.1777436905903
8	24423	84	1.8674286715544
8	24746	85	2.3122687247173
8	25088	86	1.7728867949317
8	25431	87	2.3167425630738
8	25774	88	1.9540753037779
8	26136	89	1.9746668112178
8	26499	90	2.1347060535043
8	26881	91	1.7575462908372
8	27264	92	2.1939987860297
8	27666	93	2.120035706369
8	28069	94	2.055094238932
8	28491	95	1.7272807383605
8	28914	96	2.118258836307
8	29356	97	1.9349509945498
8	29799	98	2.1082272920374
8	30261	99	1.9925318791668
8	30724	100	1.9691731807341
8	31206	101	2.0394845105351
8	31689	102	2.4170542371502
8	32172	103	2.0447537378506
8	32674	104	1.9748720439483
8	33177	105	0.973
8	33699	106	0.973
8	34222	107	0.973
8	34746	108	0.973
8	35269	109	3.6560069468011
8	35811	110	5.1000280254802
8	36354	111	5.9064827963633
8	36897	112	6.4662265207767
8	37440	113	7.950321821547
8	37983	114	5.1112778915027
8	38526	115	1.9216769999765
8	39069	116	2.0507078803347
8	39612	117	2.08748123743
8	42015	118	1.9350230835921
8	44728	119	2.0839666435046
8	47884	120	1.9659189956852
8	48695	121	2.1617760433491
8	50177	122	1.9188431966106
8	50720	123	2.2083940031418
8	51263	124	1.743360276176
8	51806	125	2.1607758933847
8	52349	126	1.8351489194366
8	52892	127	2.2783260403716
8	53435	128	1.9015976852929
8	53978	129	2.1723133083629
8	54521	130	1.7922608484409
8	55064	131	2.1786322649999
8	55607	132	2.0263010356813
8	56150	133	2.1052101537061
8	56693	134	2.1407041425157
8	57236	135	1.8969229596187
8	57779	136	2.1390210002943
8	58322	137	1.9324035241497
8	58866	138	2.2071998844792
8	59409	139	2.0633707557412
8	59952	140	1.8518214488517
8	60514	141	1.8485881940942
8	61077	142	2.2460744552782
8	61640	143	2.1426956867632
8	62222	144	2.0797470049903
8	62805	145	1.8589211103569
8	63407	146	1.9873632078707
8	64010	147	2.1003067579019
8	64632	148	1.8657064484512
8	65255	149	2.2894960391065
8	65897	150	1.7938860473496
8	66540	151	1.9795162473066
8	67183	152	2.3285384050725
8	67845	153	1.7378495417289
8	68508	154	2.0625783248863
8	69190	155	2.0450337349729
8	69873	156	2.2487321657649
8	70575	157	1.6969823328338
8	71278	158	2.1158225050964
8	72000	159	2.1816361226725
8	72723	160	1.8569069248663
8	73446	161	2.2657872308704
8	74189	162	1.895270143134
8	74932	163	1.9325595970296
8	75675	164	2.086885438866
8	76437	165	2.2045541700897
8	77200	166	1.9412204167649
8	77963	167	2.0055555854892
8	78726	168	1.9005190275768
8	79489	169	2.167291098017
8	80252	170	2.1432926932298
8	81015	171	2.1757466416563
8	84651	172	1.8606102075065
9	268	4	1.3784948011259
9	371	5	1.3862204565602
9	474	6	1.3428800786076
9	577	7	1.3277447296423
9	680	8	1.388562813744
9	802	9	1.340796417256
9	925	10	1.3589292753831
9	1049	11	1.3840856256785
9	1172	12	1.3866778525052
9	1314	13	1.3871750882794
9	1457	14	1.3381350137125
9	1600	15	1.3261305736443
9	1743	16	1.3281744465348
9	1886	17	1.3727615179475
9	2048	18	1.3349022529211
9	2211	19	1.3570413919095
9	2374	20	1.3222928665669
9	2537	21	1.35483990674
9	2700	22	1.32522729067
9	3239	23	1.3739216100981
9	3830	24	1.3638089224373
9	4624	25	1.3510661559283
9	4857	26	1.3438140045522
9	5291	27	1.3663112561497
9	5545	28	1.3663831462004
9	5748	29	1.3592400407651
9	5951	30	1.3593093089488
9	6154	31	1.3242010389998
9	6376	32	1.3316112702402
9	6599	33	1.3219624312478
9	6822	34	1.3652946956669
9	7045	35	1.3836412110767
9	7268	36	1.3230180346323
9	7510	37	1.3759793334692
9	7753	38	1.3812137293765
9	7996	39	1.3480450377715
9	8239	40	1.3806517002781
9	8483	41	1.3337800437876
9	8745	42	1.3501397637689
9	9008	43	1.3440594241709
9	9271	44	1.362954937827
9	9534	45	1.3361465208032
9	9816	46	1.3305110481128
9	10099	47	1.3276689394196
9	10382	48	1.3320779703079
9	10665	49	1.3823526087637
9	10948	50	1.3368942845975
9	11251	51	1.3832601532502
9	11554	52	1.3824688765291
9	11857	53	1.3281111381851
9	12160	54	1.3712333270976
9	12463	55	1.3616139621849
9	12766	56	1.3514668743139
9	13069	57	1.3371064873516
9	13372	58	1.33954824136
9	13675	59	1.3566326146085
9	13978	60	1.3389529846447
9	14878	61	1.3423829933486
9	15964	62	1.3536364256288
9	17383	63	1.3226592928954
9	17932	64	1.3794241432495
9	18646	65	1.3780720430077
9	18949	66	1.3194479885957
9	19252	67	1.3610527670405
9	19555	68	1.3850145265234
9	19858	69	1.3409193558942
9	20161	70	1.3340962330727
9	20464	71	1.3790754130847
9	20767	72	1.3772067180091
9	21070	73	1.3887526288454
9	21373	74	1.3380937325484
9	21676	75	1.3253684517016
9	21979	76	1.3658769728338
9	22282	77	1.3652369724554
9	22585	78	1.3539359512894
9	22888	79	1.3808832510646
9	23191	80	1.3696481833985
9	23495	81	1.3528064969998
9	23798	82	1.3716634496167
9	24101	83	1.3293503985591
9	24423	84	1.3744998510972
9	24746	85	1.3749146324699
9	25088	86	1.3481078074579
9	25431	87	1.3809199401294
9	25774	88	1.373464618761
9	26136	89	1.3795978935377
9	26499	90	1.3358455390779
9	26881	91	1.360465510564
9	27264	92	1.3792698400438
9	27666	93	1.3461158605221
9	28069	94	1.3759567882678
9	28491	95	1.3388132422632
9	28914	96	1.340875097586
9	29356	97	1.3472976236921
9	29799	98	1.3390173503528
9	30261	99	1.3557387508627
9	30724	100	1.3428934302
9	31206	101	1.324216528883
9	31689	102	1.3707388034769
9	32172	103	1.3439521969283
9	32674	104	1.357732004334
9	33177	105	1.3197085684482
9	33699	106	1.3580693872872
9	34222	107	1.3615054453193
9	34746	108	1.3602736570303
9	35269	109	1.3728428292153
9	35811	110	1.3819400300336
9	36354	111	1.3732207450893
9	36897	112	1.3444467104273
9	37440	113	1.3871536154248
9	37983	114	1.3886970620337
9	38526	115	1.3435202016424
9	39069	116	1.3336879078189
9	39612	117	1.384531967164
9	42015	118	1.3617541663148
9	44728	119	1.3504824082419
9	47884	120	1.3213016500878
9	48695	121	1.3586566122346
9	50177	122	1.3700325286643
9	50720	123	1.3530318075371
9	51263	124	1.3219916580581
9	51806	125	1.332352860918
9	52349	126	1.3790593648607
9	52892	127	1.3338262553346
9	53435	128	1.3232670576933
9	53978	129	1.3290941744668
9	54521	130	1.3675780786111
9	55064	131	1.3195628681569
9	55607	132	1.3805631026399
9	56150	133	1.3472801098154
9	56693	134	1.3848915565177
9	57236	135	1.3296090624256
9	57779	136	1.3786989863082
9	58322	137	1.3809696696828
9	58866	138	1.369717454929
9	59409	139	1.3580729301935
9	59952	140	1.3423858571979
9	60514	141	1.3378516491503
9	61077	142	1.3736940987292
9	61640	143	1.368566300969
9	62222	144	1.3811003450569
9	62805	145	1.3735057660961
9	63407	146	1.3663930552785
9	64010	147	1.3731258091058
9	64632	148	1.3531752801403
9	65255	149	1.3503784788029
9	65897	150	1.3507120795839
9	66540	151	1.3402389469654
9	67183	152	1.3583007743647
9	67845	153	1.3242167431357
9	68508	154	1.3717319203715
9	69190	155	1.3529848341326
9	69873	156	1.3404980470821
9	70575	157	1.3363558020016
9	71278	158	1.3820620845622
9	72000	159	1.3659352090973
9	72723	160	1.3231311455375
9	73446	161	1.3392330752686
9	74189	162	1.3779333864255
9	74932	163	1.3624953514793
9	75675	164	1.3404779111281
9	76437	165	1.3848724803797
9	77200	166	1.3708327093789
9	77963	167	1.3804481121446
9	78726	168	1.3330021904161
9	79489	169	1.3424690261632
9	80252	170	1.3888888888889
9	81015	171	1.3888888888889
9	84651	172	1.3888888888889
10	268	4	1.0377096880793
10	371	5	1.1960839153858
10	474	6	1.2557812538727
10	577	7	1.328960883918
10	680	8	1.3714825435814
10	802	9	1.33680342617
10	925	10	1.3667757355629
10	1049	11	1.3084516899014
10	1172	12	1.32182021509
10	1314	13	1.3152082552629
10	1457	14	1.3277571107998
10	1600	15	1.3737881601103
10	1743	16	1.3506461877224
10	1886	17	1.3245685463416
10	2048	18	1.3415722823993
10	2211	19	1.3333070514717
10	2374	20	1.380571434145
10	2537	21	1.3444427670038
10	2700	22	1.3358423519068
10	3239	23	1.3606435179342
10	3830	24	1.3826739899943
10	4624	25	1.328348212717
10	4857	26	1.3626218627259
10	5291	27	1.3814580459439
10	5545	28	1.3516025693227
10	5748	29	1.3522059658458
10	5951	30	1.3887928225773
10	6154	31	1.3720709311989
10	6376	32	1.381443698289
10	6599	33	1.3377851460569
10	6822	34	1.3657588868389
10	7045	35	1.3687327748145
10	7268	36	1.3795868825724
10	7510	37	1.3266728340144
10	7753	38	1.3749238876982
10	7996	39	1.3375341826435
10	8239	40	1.3624586546212
10	8483	41	1.3781673887085
10	8745	42	1.3776075881712
10	9008	43	1.3512623335797
10	9271	44	1.3797439389681
10	9534	45	1.3754428270072
10	9816	46	1.3304695548253
10	10099	47	1.3737756327221
10	10382	48	1.3547652729257
10	10665	49	1.3524150478285
10	10948	50	1.323952922693
10	11251	51	1.3641488913628
10	11554	52	1.3395497801765
10	11857	53	1.3735680092163
10	12160	54	1.3776478687183
10	12463	55	1.3631268571933
10	12766	56	1.3755954484481
10	13069	57	1.3379704257629
10	13372	58	1.3129692509693
10	13675	59	1.3130308387287
10	13978	60	1.3471298860148
10	14878	61	1.3283785202236
10	15964	62	1.3612687661144
10	17383	63	1.3239740072607
10	17932	64	1.3471634447906
10	18646	65	1.3663104398762
10	18949	66	1.3205473391532
10	19252	67	1.3338025444713
10	19555	68	1.3821431583427
10	19858	69	1.3358086706204
10	20161	70	1.3550396043865
10	20464	71	1.3404106032815
10	20767	72	1.3870251264598
10	21070	73	1.3479258245368
10	21373	74	1.3481141310573
10	21676	75	1.3402700401396
10	21979	76	1.3857951783413
10	22282	77	1.3321022048411
10	22585	78	1.3566457799364
10	22888	79	1.3591505411508
10	23191	80	1.3286960428943
10	23495	81	1.3478138292622
10	23798	82	1.3326193789706
10	24101	83	1.35542262082
10	24423	84	1.34382051115
10	24746	85	1.3753780202306
10	25088	86	1.3494176368436
10	25431	87	1.3797426693782
10	25774	88	1.3886203832064
10	26136	89	1.3332955187717
10	26499	90	1.3390391597932
10	26881	91	1.350893062368
10	27264	92	1.3293697977497
10	27666	93	1.326016928037
10	28069	94	1.3466254838083
10	28491	95	1.3383026577907
10	28914	96	1.3407465724352
10	29356	97	1.3814493669229
10	29799	98	1.3735268859374
10	30261	99	1.3804946907267
10	30724	100	1.3195724236926
10	31206	101	1.3274943121124
10	31689	102	1.3780878944413
10	32172	103	1.3582103037439
10	32674	104	1.3101736541022
10	33177	105	1.3864867966751
10	33699	106	1.3281100025375
10	34222	107	1.3361058338099
10	34746	108	1.3806446912231
10	35269	109	1.3570595600031
10	35811	110	1.3699153197781
10	36354	111	1.3324537496406
10	36897	112	1.3523393085213
10	37440	113	1.3197800764141
10	37983	114	1.3670609969672
10	38526	115	1.3827890934125
10	39069	116	1.3273837138129
10	39612	117	1.3287144952725
10	42015	118	1.3312773416825
10	44728	119	1.3523281625951
10	47884	120	1.3504228682238
10	48695	121	1.3606281254935
10	50177	122	1.3704357923093
10	50720	123	1.3381943519052
10	51263	124	1.3506723588378
10	51806	125	1.3684687424555
10	52349	126	1.3499891708489
10	52892	127	1.3837163593821
10	53435	128	1.3573202686381
10	53978	129	1.3516097966769
10	54521	130	1.3602177706263
10	55064	131	1.3823471337867
10	55607	132	1.3390149744939
10	56150	133	1.3690322641277
10	56693	134	1.3864405501172
10	57236	135	1.3144906148953
10	57779	136	1.3497311420765
10	58322	137	1.335740151731
10	58866	138	1.3752212338214
10	59409	139	1.3551484884617
10	59952	140	1.3414832699345
10	60514	141	1.3625833392305
10	61077	142	1.3176863240112
10	61640	143	1.3532813609345
10	62222	144	1.3600505649326
10	62805	145	1.320423294706
10	63407	146	1.3225694324582
10	64010	147	1.3404145874342
10	64632	148	1.3448289332963
10	65255	149	1.3378735939073
10	65897	150	1.370033355264
10	66540	151	1.3260267465409
10	67183	152	1.3373754444746
10	67845	153	1.3348610362381
10	68508	154	1.3177171914097
10	69190	155	1.3802137699948
10	69873	156	1.3709811499125
10	70575	157	1.3774495058816
10	71278	158	1.3645198557198
10	72000	159	1.3794067704617
10	72723	160	1.3582438667869
10	73446	161	1.3735357768342
10	74189	162	1.3870797533232
10	74932	163	1.3717245333505
10	75675	164	1.3747899509488
10	76437	165	1.3550624104894
10	77200	166	1.3656054540802
10	77963	167	1.3725942734696
10	78726	168	1.3762881727352
10	79489	169	1.3564368923965
10	80252	170	1.3422419844493
10	81015	171	1.3755171712708
10	84651	172	1.3888888888889
11	371	5	0.007725655434317
11	474	6	-0.043340377952619
11	577	7	-0.015135348965285
11	680	8	0.06081808410171
11	802	9	-0.047766396488037
11	925	10	0.018132858127097
11	1049	11	0.025156350295422
11	1172	12	0.0025922268266894
11	1314	13	0.00049723577426941
11	1457	14	-0.049040074566922
11	1600	15	-0.012004440068267
11	1743	16	0.0020438728905801
11	1886	17	0.044587071412631
11	2048	18	-0.037859265026378
11	2211	19	0.022139138988374
11	2374	20	-0.034748525342568
11	2537	21	0.032547040173085
11	2700	22	-0.029612616069951
11	3239	23	0.048694319428048
11	3830	24	-0.010112687660795
11	4624	25	-0.012742766508988
11	4857	26	-0.0072521513761281
11	5291	27	0.022497251597492
11	5545	28	7.1890050700407e-05
11	5748	29	-0.0071431054352109
11	5951	30	6.9268183627402e-05
11	6154	31	-0.035108269948978
11	6376	32	0.0074102312404041
11	6599	33	-0.0096488389923857
11	6822	34	0.043332264419102
11	7045	35	0.018346515409778
11	7268	36	-0.0606231764444
11	7510	37	0.052961298836939
11	7753	38	0.0052343959072862
11	7996	39	-0.033168691604967
11	8239	40	0.032606662506522
11	8483	41	-0.046871656490516
11	8745	42	0.016359719981362
11	9008	43	-0.0060803395980553
11	9271	44	0.018895513656187
11	9534	45	-0.026808417023858
11	9816	46	-0.005635472690402
11	10099	47	-0.0028421086931807
11	10382	48	0.0044090308882814
11	10665	49	0.050274638455853
11	10948	50	-0.045458324166248
11	11251	51	0.046365868652679
11	11554	52	-0.00079127672102519
11	11857	53	-0.054357738344051
11	12160	54	0.043122188912498
11	12463	55	-0.0096193649126994
11	12766	56	-0.010147087870993
11	13069	57	-0.01436038696233
11	13372	58	0.0024417540084363
11	13675	59	0.017084373248508
11	13978	60	-0.017679629963823
11	14878	61	0.0034300087039203
11	15964	62	0.011253432280177
11	17383	63	-0.03097713273342
11	17932	64	0.056764850354133
11	18646	65	-0.0013521002418
11	18949	66	-0.05862405441197
11	19252	67	0.041604778444809
11	19555	68	0.023961759482821
11	19858	69	-0.044095170629185
11	20161	70	-0.0068231228215154
11	20464	71	0.044979180012079
11	20767	72	-0.0018686950756495
11	21070	73	0.011545910836301
11	21373	74	-0.050658896297035
11	21676	75	-0.012725280846805
11	21979	76	0.040508521132223
11	22282	77	-0.00064000037835088
11	22585	78	-0.011301021166017
11	22888	79	0.026947299775202
11	23191	80	-0.011235067666146
11	23495	81	-0.016841686398645
11	23798	82	0.018856952616867
11	24101	83	-0.04231305105754
11	24423	84	0.045149452538074
11	24746	85	0.00041478137265782
11	25088	86	-0.026806825011995
11	25431	87	0.032812132671501
11	25774	88	-0.0074553213683735
11	26136	89	0.006133274776706
11	26499	90	-0.043752354459785
11	26881	91	0.024619971486067
11	27264	92	0.018804329479786
11	27666	93	-0.033153979521659
11	28069	94	0.029840927745681
11	28491	95	-0.037143546004599
11	28914	96	0.0020618553228107
11	29356	97	0.0064225261060831
11	29799	98	-0.008280273339349
11	30261	99	0.016721400509899
11	30724	100	-0.012845320662665
11	31206	101	-0.01867690131702
11	31689	102	0.046522274593978
11	32172	103	-0.026786606548638
11	32674	104	0.013779807405727
11	33177	105	-0.038023435885811
11	33699	106	0.038360818838959
11	34222	107	0.0034360580320936
11	34746	108	-0.0012317882889572
11	35269	109	0.012569172184966
11	35811	110	0.0090972008183599
11	36354	111	-0.0087192849443656
11	36897	112	-0.028774034661991
11	37440	113	0.042706904997532
11	37983	114	0.0015434466088966
11	38526	115	-0.045176860391317
11	39069	116	-0.0098322938235167
11	39612	117	0.050844059345157
11	42015	118	-0.022777800849225
11	44728	119	-0.011271758072932
11	47884	120	-0.029180758154123
11	48695	121	0.037354962146815
11	50177	122	0.011375916429744
11	50720	123	-0.01700072112726
11	51263	124	-0.03104014947894
11	51806	125	0.010361202859915
11	52349	126	0.046706503942712
11	52892	127	-0.045233109526129
11	53435	128	-0.010559197641366
11	53978	129	0.0058271167735156
11	54521	130	0.038483904144313
11	55064	131	-0.048015210454145
11	55607	132	0.061000234482991
11	56150	133	-0.03328299282455
11	56693	134	0.03761144670231
11	57236	135	-0.05528249409205
11	57779	136	0.049089923882598
11	58322	137	0.0022706833745663
11	58866	138	-0.011252214753767
11	59409	139	-0.011644524735554
11	59952	140	-0.01568707299561
11	60514	141	-0.0045342080476176
11	61077	142	0.035842449578922
11	61640	143	-0.0051277977601987
11	62222	144	0.012534044087968
11	62805	145	-0.0075945789608844
11	63407	146	-0.0071127108175359
11	64010	147	0.0067327538272366
11	64632	148	-0.019950528965435
11	65255	149	-0.0027968013374549
11	65897	150	0.00033360078103017
11	66540	151	-0.010473132618548
11	67183	152	0.018061827399328
11	67845	153	-0.034084031229011
11	68508	154	0.047515177235861
11	69190	155	-0.01874708623897
11	69873	156	-0.012486787050471
11	70575	157	-0.0041422450805033
11	71278	158	0.045706282560584
11	72000	159	-0.016126875464882
11	72723	160	-0.042804063559743
11	73446	161	0.01610192973102
11	74189	162	0.038700311156895
11	74932	163	-0.015438034946176
11	75675	164	-0.022017440351192
11	76437	165	0.044394569251583
11	77200	166	-0.014039771000777
11	77963	167	0.0096154027657271
11	78726	168	-0.047445921728569
11	79489	169	0.0094668357471366
11	80252	170	0.046419862725694
11	81015	171	0
11	84651	172	0
12	371	5	1.179698331266
12	474	6	1.1609778203043
12	577	7	1.1694235289717
12	680	8	1.197583980783
12	802	9	1.1594678407155
12	925	10	1.1817251213327
12	1049	11	1.1854045004525
12	1172	12	1.1780059540961
12	1314	13	1.1773301416829
12	1457	14	1.158958019433
12	1600	15	1.1703513928062
12	1743	16	1.1749417989228
12	1886	17	1.1912119808742
12	2048	18	1.1624356719569
12	2211	19	1.1829350769371
12	2374	20	1.16292758321
12	2537	21	1.1862143600683
12	2700	22	1.1646862964297
12	3239	23	1.19264098772
12	3830	24	1.17270065787
12	4624	25	1.1712541237142
12	4857	26	1.1727010883671
12	5291	27	1.1835543979294
12	5545	28	1.176173658585
12	5748	29	1.1734618092667
12	5951	30	1.1758277940185
12	6154	31	1.1628897734441
12	6376	32	1.1768331314248
12	6599	33	1.1709108331459
12	6822	34	1.1903547916188
12	7045	35	1.1831093409471
12	7268	36	1.154706780214
12	7510	37	1.1941804558419
12	7753	38	1.1786155562951
12	7996	39	1.1644801868022
12	8239	40	1.1876952054968
12	8483	41	1.1594942699435
12	8745	42	1.180681285432
12	9008	43	1.1730921926227
12	9271	44	1.1821894889868
12	9534	45	1.1660434557464
12	9816	46	1.172594405417
12	10099	47	1.1733535584179
12	10382	48	1.1758932302012
12	10665	49	1.1936775558776
12	10948	50	1.160066224897
12	11251	51	1.1924297629666
12	11554	52	1.1766707486845
12	11857	53	1.1568859492449
12	12160	54	1.1906369469122
12	12463	55	1.172760876191
12	12766	56	1.1721178481963
12	13069	57	1.1700953240178
12	13372	58	1.1756301298209
12	13675	59	1.1812603200382
12	13978	60	1.1691078459692
12	14878	61	1.1760896736123
12	15964	62	1.1791997159618
12	17383	63	1.1641445410859
12	17932	64	1.195656871241
12	18646	65	1.1762709043265
12	18949	66	1.1552206878391
12	19252	67	1.1895370385644
12	19555	68	1.1850566950743
12	19858	69	1.1606588163915
12	20161	70	1.1723823992382
12	20464	71	1.191718041807
12	20767	72	1.1760575265328
12	21070	73	1.1811051477584
12	21373	74	1.1584344568468
12	21676	75	1.1700862151973
12	21979	76	1.1894597528515
12	22282	77	1.1758835270642
12	22585	78	1.1718556437738
12	22888	79	1.185824921895
12	23191	80	1.1726006544296
12	23495	81	1.1699972587507
12	23798	82	1.1826410094618
12	24101	83	1.1607889009206
12	24423	84	1.1915017175616
12	24746	85	1.1767034257902
12	25088	86	1.1665496768339
12	25431	87	1.1877787758251
12	25774	88	1.1740275301798
12	26136	89	1.1788335787346
12	26499	90	1.1605758216361
12	26881	91	1.183933673857
12	27264	92	1.1830290052002
12	27666	93	1.164406347091
12	28069	94	1.1865122244687
12	28491	95	1.1628215205876
12	28914	96	1.1755728140567
12	29356	97	1.1773049479166
12	29799	98	1.1721439109899
12	30261	99	1.1810944689087
12	30724	100	1.1708476701134
12	31206	101	1.1681342414165
12	31689	102	1.1917309058615
12	32172	103	1.1663805192856
12	32674	104	1.1802371440907
12	33177	105	1.1617817242658
12	33699	106	1.1882999475889
12	34222	107	1.1770396192486
12	34746	108	1.175448304358
12	35269	109	1.1806235335765
12	35811	110	1.1799383911633
12	36354	111	1.1735977724752
12	36897	112	1.1657574800005
12	37440	113	1.1914399539681
12	37983	114	1.1777546982609
12	38526	115	1.1604077021472
12	39069	116	1.1713959676318
12	39612	117	1.1940002495311
12	42015	118	1.1684490149081
12	44728	119	1.1717062248551
12	47884	120	1.1646605525128
12	48695	121	1.1880046505357
12	50177	122	1.1800840003215
12	50720	123	1.1699554693729
12	51263	124	1.1640969179411
12	51806	125	1.1778181430232
12	52349	126	1.1922911670402
12	52892	127	1.1600227143713
12	53435	128	1.170681046992
12	53978	129	1.1761988868464
12	54521	130	1.1888920158956
12	55064	131	1.1585984298081
12	55607	132	1.1971371759224
12	56150	133	1.1644119032551
12	56693	134	1.1896056916239
12	57236	135	1.1566429942124
12	57779	136	1.1930614664659
12	58322	137	1.177616981858
12	58866	138	1.1725981842542
12	59409	139	1.1719336253265
12	59952	140	1.1699051530368
12	60514	141	1.1732972398352
12	61077	142	1.1883724800473
12	61640	143	1.1745651588772
12	62222	144	1.1810395363959
12	62805	145	1.173983366372
12	63407	146	1.1738082476135
12	64010	147	1.1787067826171
12	64632	148	1.1689998981595
12	65255	149	1.1744595412997
12	65897	150	1.1754945915177
12	66540	151	1.1714927223659
12	67183	152	1.1816684824302
12	67845	153	1.1632172774581
12	68508	154	1.1921187071214
12	69190	155	1.1693839358746
12	69873	156	1.1708541651265
12	70575	157	1.1733522098664
12	71278	158	1.1921382530162
12	72000	159	1.1708193327821
12	72723	160	1.1603927015885
12	73446	161	1.1800234764059
12	74189	162	1.1895648704711
12	74932	163	1.1708911777538
12	75675	164	1.1677743174511
12	76437	165	1.1918684844384
12	77200	166	1.1717286132801
12	77963	167	1.1800347609263
12	78726	168	1.1592806649769
12	79489	169	1.1780470629707
12	80252	170	1.1927852596068
12	81015	171	1.1772475
12	84651	172	1.1772475
13	371	5	0.15837422730652
13	474	6	0.059697338486885
13	577	7	0.073179630045311
13	680	8	0.042521659663357
13	802	9	-0.03467911741142
13	925	10	0.029972309392894
13	1049	11	-0.05832404566147
13	1172	12	0.013368525188555
13	1314	13	-0.006611959827018
13	1457	14	0.012548855536881
13	1600	15	0.046031049310437
13	1743	16	-0.02314197238783
13	1886	17	-0.026077641380873
13	2048	18	0.017003736057733
13	2211	19	-0.0082652309275646
13	2374	20	0.047264382673246
13	2537	21	-0.036128667141182
13	2700	22	-0.0086004150969887
13	3239	23	0.024801166027379
13	3830	24	0.022030472060174
13	4624	25	-0.054325777277376
13	4857	26	0.0342736500089
13	5291	27	0.018836183218001
13	5545	28	-0.029855476621176
13	5748	29	0.00060339652312291
13	5951	30	0.036586856731446
13	6154	31	-0.016721891378337
13	6376	32	0.0093727670900989
13	6599	33	-0.043658552232147
13	6822	34	0.02797374078202
13	7045	35	0.002973887975612
13	7268	36	0.010854107757849
13	7510	37	-0.052914048557998
13	7753	38	0.048251053683796
13	7996	39	-0.037389705054617
13	8239	40	0.024924471977607
13	8483	41	0.015708734087335
13	8745	42	-0.00055980053730309
13	9008	43	-0.026345254591433
13	9271	44	0.028481605388354
13	9534	45	-0.0043011119608614
13	9816	46	-0.044973272181972
13	10099	47	0.043306077896829
13	10382	48	-0.019010359796439
13	10665	49	-0.0023502250971636
13	10948	50	-0.028462125135519
13	11251	51	0.040195968669798
13	11554	52	-0.024599111186237
13	11857	53	0.034018229039725
13	12160	54	0.0040798595020568
13	12463	55	-0.01452101152503
13	12766	56	0.012468591254825
13	13069	57	-0.037625022685259
13	13372	58	-0.025001174793523
13	13675	59	6.1587759337733e-05
13	13978	60	0.034099047286159
13	14878	61	-0.018751365791226
13	15964	62	0.032890245890832
13	17383	63	-0.037294758853722
13	17932	64	0.02318943752987
13	18646	65	0.019146995085633
13	18949	66	-0.045763100723013
13	19252	67	0.013255205318138
13	19555	68	0.048340613871398
13	19858	69	-0.046334487722359
13	20161	70	0.019230933766165
13	20464	71	-0.014629001105075
13	20767	72	0.046614523178303
13	21070	73	-0.039099301922963
13	21373	74	0.00018830652051172
13	21676	75	-0.0078440909176909
13	21979	76	0.045525138201709
13	22282	77	-0.053692973500195
13	22585	78	0.024543575095271
13	22888	79	0.002504761214368
13	23191	80	-0.030454498256505
13	23495	81	0.019117786367941
13	23798	82	-0.01519445029165
13	24101	83	0.022803241849437
13	24423	84	-0.011602109669992
13	24746	85	0.03155750908061
13	25088	86	-0.025960383387024
13	25431	87	0.030325032534569
13	25774	88	0.0088777138282441
13	26136	89	-0.055324864434725
13	26499	90	0.0057436410214804
13	26881	91	0.011853902574835
13	27264	92	-0.021523264618332
13	27666	93	-0.0033528697127219
13	28069	94	0.020608555771307
13	28491	95	-0.0083228260175221
13	28914	96	0.0024439146444719
13	29356	97	0.040702794487717
13	29799	98	-0.007922480985548
13	30261	99	0.0069678047892698
13	30724	100	-0.060922267034096
13	31206	101	0.007921888419816
13	31689	102	0.050593582328929
13	32172	103	-0.019877590697397
13	32674	104	-0.048036649641718
13	33177	105	0.076313142572961
13	33699	106	-0.058376794137682
13	34222	107	0.0079958312724355
13	34746	108	0.044538857413156
13	35269	109	-0.023585131219983
13	35811	110	0.012855759774977
13	36354	111	-0.037461570137469
13	36897	112	0.019885558880767
13	37440	113	-0.032559232107209
13	37983	114	0.047280920553021
13	38526	115	0.01572809644535
13	39069	116	-0.055405379599607
13	39612	117	0.0013307814596271
13	42015	118	0.0025628464100023
13	44728	119	0.021050820912528
13	47884	120	-0.0019052943712774
13	48695	121	0.010205257269762
13	50177	122	0.0098076668157125
13	50720	123	-0.0322414404041
13	51263	124	0.012478006932623
13	51806	125	0.017796383617679
13	52349	126	-0.018479571606602
13	52892	127	0.033727188533198
13	53435	128	-0.02639609074393
13	53978	129	-0.0057104719612111
13	54521	130	0.008607973949337
13	55064	131	0.022129363160401
13	55607	132	-0.043332159292757
13	56150	133	0.030017289633785
13	56693	134	0.017408285989495
13	57236	135	-0.07194993522184
13	57779	136	0.035240527181121
13	58322	137	-0.013990990345418
13	58866	138	0.039481082090384
13	59409	139	-0.020072745359762
13	59952	140	-0.013665218527118
13	60514	141	0.021100069295951
13	61077	142	-0.044897015219258
13	61640	143	0.035595036923253
13	62222	144	0.0067692039980707
13	62805	145	-0.039627270226548
13	63407	146	0.0021461377521823
13	64010	147	0.017845154975981
13	64632	148	0.0044143458621371
13	65255	149	-0.0069553393889996
13	65897	150	0.032159761356702
13	66540	151	-0.044006608723106
13	67183	152	0.011348697933699
13	67845	153	-0.002514408236526
13	68508	154	-0.017143844828403
13	69190	155	0.062496578585142
13	69873	156	-0.0092326200823576
13	70575	157	0.0064683559691272
13	71278	158	-0.012929650161768
13	72000	159	0.01488691474186
13	72723	160	-0.021162903674778
13	73446	161	0.01529191004731
13	74189	162	0.013543976488965
13	74932	163	-0.01535521997271
13	75675	164	0.0030654175983122
13	76437	165	-0.019727540459419
13	77200	166	0.010543043590888
13	77963	167	0.0069888193893923
13	78726	168	0.0036938992655704
13	79489	169	-0.019851280338718
13	80252	170	-0.014194907947216
13	81015	171	0.033275186821508
13	84651	172	0.013371717618106
14	371	5	1.2135095177393
14	474	6	1.1888288286736
14	577	7	1.1977638386714
14	680	8	1.1904531976665
14	802	9	1.1635355252864
14	925	10	1.1860417944889
14	1049	11	1.1549349288903
14	1172	12	1.1782366154356
14	1314	13	1.17156004814
14	1457	14	1.1782827408777
14	1600	15	1.1917511508884
14	1743	16	1.1678499406719
14	1886	17	1.1657873375881
14	2048	18	1.1804381330026
14	2211	19	1.1718818495212
14	2374	20	1.1925675434806
14	2537	21	1.163374335472
14	2700	22	1.1718924452113
14	3239	23	1.1840028248673
14	3830	24	1.1842854771673
14	4624	25	1.1569046276617
14	4857	26	1.1872217881851
14	5291	27	1.1831562414672
14	5545	28	1.1657043949432
14	5748	29	1.1756554543407
14	5951	30	1.1894884013387
14	6154	31	1.1708979065923
14	6376	32	1.1800048410622
14	6599	33	1.1606801394845
14	6822	34	1.1853270459878
14	7045	35	1.1772455295835
14	7268	36	1.1804026101028
14	7510	37	1.1572962934812
14	7753	38	1.1925547453096
14	7996	39	1.1626912852937
14	8239	40	1.1841426566496
14	8483	41	1.1819420801232
14	8745	42	1.1765114522265
14	9008	43	1.1668333764388
14	9271	44	1.1862721455452
14	9534	45	1.17516600308
14	9816	46	1.1599790433356
14	10099	47	1.1908482177046
14	10382	48	1.1693767261679
14	10665	49	1.1747029969449
14	10948	50	1.1650003861632
14	11251	51	1.1892558726596
14	11554	52	1.1669005627327
14	11857	53	1.1877613708648
14	12160	54	1.1780538391932
14	12463	55	1.171220871715
14	12766	56	1.1807327542711
14	13069	57	1.1626327366936
[...]
138	64010	147	2415.7989952066
138	64632	148	2415.7989952066
138	65255	149	2414.2252975678
138	65897	150	2410.9088784745
138	66540	151	2406.325709608
138	67183	152	2402.7033096604
138	67845	153	2399.4429526738
138	68508	154	2396.5328768308
138	69190	155	2393.9849026464
138	69873	156	2391.7429973399
138	70575	157	2389.8220673221
138	71278	158	2388.1922097461
138	72000	159	2386.806335401
138	72723	160	2385.6342228844
138	73446	161	2384.6230318141
138	74189	162	2383.7084249802
138	74932	163	2382.8516554565
138	75675	164	2382.0187839079
138	76437	165	2381.1894910001
138	77200	166	2380.3387094735
138	77963	167	2379.4622383608
138	78726	168	2378.565486349
138	79489	169	2377.6493049295
138	80252	170	2376.6990350895
138	81015	171	2375.7264553453
138	84651	172	2374.7284469358
139	64010	147	1578.1120278556
139	64632	148	1578.1120278556
139	65255	149	1578.6898814151
139	65897	150	1579.9076531976
139	66540	151	1582.4004233694
139	67183	152	1586.0694154752
139	67845	153	1589.3717079377
139	68508	154	1592.3192138597
139	69190	155	1594.8999606855
139	69873	156	1597.1707019042
139	70575	157	1599.1163393743
139	71278	158	1600.7671605609
139	72000	159	1602.1708603473
139	72723	160	1603.3580488497
139	73446	161	1604.3822460966
139	74189	162	1605.3086168189
139	74932	163	1606.1764063127
139	75675	164	1607.0199904507
139	76437	165	1607.8599499185
139	77200	166	1608.7216743967
139	77963	167	1609.6094188867
139	78726	168	1610.5177051332
139	79489	169	1611.4456706932
139	80252	170	1612.4081631266
139	81015	171	1613.3932524193
139	84651	172	1614.4040974472
140	64010	147	1.9577504665731
140	64632	148	0.53143569021356
140	65255	149	-0.23438451895036
140	65897	150	-0.38953034607846
140	66540	151	-0.53053408581109
140	67183	152	-0.3801225682537
140	67845	153	-0.57171386400736
140	68508	154	-0.40311906042627
140	69190	155	-0.39680512713824
140	69873	156	-0.46387603638512
140	70575	157	-0.28806234526056
140	71278	158	-0.27329845340537
140	72000	159	-0.14952078538888
140	72723	160	-0.089661961372639
140	73446	161	-0.053706130152015
140	74189	162	-0.014693137128124
140	74932	163	0.023458843986604
140	75675	164	0.078248181473309
140	76437	165	0.02586018169291
140	77200	166	0.023213884963308
140	77963	167	0.018531889013231
140	78726	168	0.080330980821896
140	79489	169	0.038899838944448
140	80252	170	0.005119727045154
140	81015	171	0.010271295187224
140	84651	172	-0.012642153100221
141	64010	147	3.6441733815604
141	64632	148	2.0737039958831
141	65255	149	0.973
141	65897	150	0.973
141	66540	151	0.973
141	67183	152	0.973
141	67845	153	0.973
141	68508	154	0.973
141	69190	155	0.973
141	69873	156	0.973
141	70575	157	0.973
141	71278	158	0.973
141	72000	159	0.973
141	72723	160	1.1424790506216
141	73446	161	1.1510767837285
141	74189	162	1.161317990689
141	74932	163	1.1731186183832
141	75675	164	1.1938288444507
141	76437	165	1.1795088457501
141	77200	166	1.1799575886398
141	77963	167	1.1794809965594
141	78726	168	1.2045267079732
141	79489	169	1.1928643052123
141	80252	170	1.1814502116579
141	81015	171	1.1837631717999
141	84651	172	1.1751834387309
142	64632	148	2.6198694488609
142	65255	149	4.4087491397413
142	65897	150	5.4087462971521
142	66540	151	4.901481003292
142	67183	152	4.4796582726662
142	67845	153	3.8874585570419
142	68508	154	3.4465821434677
142	69190	155	2.9794460926239
142	69873	156	2.5512910636565
142	70575	157	2.1742571298835
142	71278	158	1.8423855357351
142	72000	159	1.5787674612555
142	72723	160	1.3253549547943
142	73446	161	1.2630289394097
142	74189	162	1.2104789482795
142	74932	163	1.185215416425
142	75675	164	1.1735028450832
142	76437	165	1.2034593651475
142	77200	166	1.2341823584003
142	77963	167	1.2899895307572
142	78726	168	1.3364691708508
142	79489	169	1.327208615732
142	80252	170	1.3891492049512
142	81015	171	1.4092094041578
142	84651	172	1.4609798868421
143	65255	149	2415.8694684898
143	65897	150	2415.8694684898
143	66540	151	2414.6384724554
143	67183	152	2411.4321107087
143	67845	153	2406.9368245602
143	68508	154	2403.5915602909
143	69190	155	2400.6377320284
143	69873	156	2398.0112374916
143	70575	157	2395.7115767589
143	71278	158	2393.7404240317
143	72000	159	2392.0352712987
143	72723	160	2390.5930518891
143	73446	161	2389.3608375986
143	74189	162	2388.2833079143
143	74932	163	2387.3230304591
143	75675	164	2386.4315637255
143	76437	165	2385.5733197512
143	77200	166	2384.7286101384
143	77963	167	2383.8738014138
143	78726	168	2382.9887693655
143	79489	169	2382.0949138958
143	80252	170	2381.1733244971
143	81015	171	2380.226831978
143	84651	172	2379.2537049357
144	65255	149	1578.0861504339
144	65897	150	1578.0861504339
144	66540	151	1578.5381657528
144	67183	152	1579.7155250525
144	67845	153	1581.7814481128
144	68508	154	1585.169739956
144	69190	155	1588.1615610514
144	69873	156	1590.8218381768
144	70575	157	1593.1510776859
144	71278	158	1595.1475838413
144	72000	159	1596.8746686494
144	72723	160	1598.3354382226
144	73446	161	1599.5835015429
144	74189	162	1600.6748906672
144	74932	163	1601.6475194357
144	75675	164	1602.5504524242
144	76437	165	1603.4197353339
144	77200	166	1604.2753097992
144	77963	167	1605.1411132747
144	78726	168	1606.0375288129
144	79489	169	1606.942881261
144	80252	170	1607.8763243593
144	81015	171	1608.834990887
144	84651	172	1609.8206345178
145	65255	149	1.7888796908804
145	65897	150	0.99999715741074
145	66540	151	-0.50726529386005
145	67183	152	-0.4218227306258
145	67845	153	-0.59219971562434
145	68508	154	-0.44087641357413
145	69190	155	-0.46713605084385
145	69873	156	-0.42815502896737
145	70575	157	-0.37703393377304
145	71278	158	-0.3318715941484
145	72000	159	-0.26361807447959
145	72723	160	-0.25341250646123
145	73446	161	-0.062326015384615
145	74189	162	-0.052549991130153
145	74932	163	-0.025263531854452
145	75675	164	-0.011712571341853
145	76437	165	0.029956520064269
145	77200	166	0.0307229932528
145	77963	167	0.055807172356986
145	78726	168	0.046479640093585
145	79489	169	-0.0092605551188341
145	80252	170	0.061940589219164
145	81015	171	0.020060199206679
145	84651	172	0.051770482684272
146	65255	149	3.2312942501332
146	65897	150	2.6890392176445
146	66540	151	0.973
146	67183	152	0.973
146	67845	153	0.973
146	68508	154	0.973
146	69190	155	0.973
146	69873	156	0.973
146	70575	157	0.973
146	71278	158	0.973
146	72000	159	0.973
146	72723	160	0.973
146	73446	161	1.1521432301898
146	74189	162	1.1532271851221
146	74932	163	1.1601123972939
146	75675	164	1.1634465840009
146	76437	165	1.1769042955784
146	77200	166	1.1788488054083
146	77963	167	1.1897771498687
146	78726	168	1.1896623776456
146	79489	169	1.1712784561139
146	80252	170	1.1979969744225
146	81015	171	1.1850516188688
146	84651	172	1.1989939324087
147	65897	150	2.2564659966491
147	66540	151	4.3805328573754
147	67183	152	4.9520188794964
147	67845	153	4.4731530027503
147	68508	154	4.0064600600341
147	69190	155	3.4586236201949
147	69873	156	3.1328419495981
147	70575	157	2.5849978938869
147	71278	158	2.2907111545791
147	72000	159	1.9311234688107
147	72723	160	1.6199623045152
147	73446	161	1.4422923713855
147	74189	162	1.3478422069649
147	74932	163	1.2139696112754
147	75675	164	1.2273957651458
147	76437	165	1.2030706725071
147	77200	166	1.2463575568426
147	77963	167	1.2705963861776
147	78726	168	1.3043298251051
147	79489	169	1.3095048386256
147	80252	170	1.3781468022799
147	81015	171	1.3886239695149
147	84651	172	1.4555634604595
148	66540	151	2.1240668607263
148	67183	152	0.57148602212101
148	67845	153	-0.47886587674617
148	68508	154	-0.46669294271616
148	69190	155	-0.54783643983916
148	69873	156	-0.32578167059683
148	70575	157	-0.5478440557112
148	71278	158	-0.29428673930782
148	72000	159	-0.35958768576838
148	72723	160	-0.31116116429548
148	73446	161	-0.17766993312976
148	74189	162	-0.094450164420553
148	74932	163	-0.13387259568947
148	75675	164	0.013426153870316
148	76437	165	-0.024325092638669
148	77200	166	0.043286884335529
148	77963	167	0.024238829334954
148	78726	168	0.033733438927512
148	79489	169	0.0051750135205453
148	80252	170	0.068641963654275
148	81015	171	0.010477167235021
148	84651	172	0.06693949094452
149	66540	151	3.5714773872522
149	67183	152	2.0421358040724
149	67845	153	0.973
149	68508	154	0.973
149	69190	155	0.973
149	69873	156	0.973
149	70575	157	0.973
149	71278	158	0.973
149	72000	159	0.973
149	72723	160	0.973
149	73446	161	0.973
149	74189	162	1.1445658623779
149	74932	163	0.973
149	75675	164	1.1733518751875
149	76437	165	1.161144170379
149	77200	166	1.1833053187934
149	77963	167	1.1789053260215
149	78726	168	1.1837297486947
149	79489	169	1.1750111401012
149	80252	170	1.1995218906776
149	81015	171	1.1807408504693
149	84651	172	1.2039830212419
150	67183	152	2414.8962557493
150	67845	153	2414.8962557493
150	68508	154	2412.065430222
150	69190	155	2407.8101865081
150	69873	156	2404.722077358
150	70575	157	2402.0423756641
150	71278	158	2399.6982762258
150	72000	159	2397.6504605811
150	72723	160	2395.8939955024
150	73446	161	2394.3897817638
150	74189	162	2393.0890877184
150	74932	163	2392.9153034303
150	75675	164	2392.9153034303
150	76437	165	2392.9153034303
150	77200	166	2392.9153034303
150	77963	167	2392.9153034303
150	78726	168	2392.9153034303
150	79489	169	2392.9153034303
150	80252	170	2392.9153034303
150	81015	171	2392.9153034303
150	84651	172	2392.9153034303
151	67183	152	1578.443509073
151	67845	153	1578.443509073
151	68508	154	1579.4829734322
151	69190	155	1581.0454767151
151	69873	156	1584.0246819137
151	70575	157	1586.7388505591
151	71278	158	1589.1131003546
151	72000	159	1591.187255485
151	72723	160	1592.9663126292
151	73446	161	1594.4898739178
151	74189	162	1595.8072977951
151	74932	163	1595.9833173379
151	75675	164	1595.9833173379
151	76437	165	1595.9833173379
151	77200	166	1595.9833173379
151	77963	167	1595.9833173379
151	78726	168	1595.9833173379
151	79489	169	1595.9833173379
151	80252	170	1595.9833173379
151	81015	171	1595.9833173379
151	84651	172	1595.9833173379
152	67845	153	3.8537769878464
152	68508	154	4.5411464481352
152	69190	155	4.1188188127946
152	69873	156	3.6142726420791
152	70575	157	3.0886543987252
152	71278	158	2.7528265390385
152	72000	159	2.263615859435
152	72723	160	1.9928996947708
152	73446	161	1.7245563018053
152	74189	162	0
152	74932	163	0
152	75675	164	0
152	76437	165	0
152	77200	166	0
152	77963	167	0
152	78726	168	0
152	79489	169	0
152	80252	170	0
152	81015	171	0
152	84651	172	0
153	68508	154	2415.2329619076
153	69190	155	2415.2329619076
153	69873	156	2412.6469516023
153	70575	157	2408.8376150373
153	71278	158	2405.9104040008
153	72000	159	2403.5716534827
153	72723	160	2401.5089044248
153	73446	161	2399.7227689336
153	74189	162	2398.1707029507
153	74932	163	2397.1272996488
153	75675	164	2396.6857220799
153	76437	165	2396.42869427
153	77200	166	2396.4286889617
153	77963	167	2396.4286889617
153	78726	168	2396.4286889617
153	79489	169	2396.4286889617
153	80252	170	2396.4286889617
153	81015	171	2396.4286889617
153	84651	172	2396.4286889617
154	68508	154	1578.319872329
154	69190	155	1578.319872329
154	69873	156	1579.269441816
154	70575	157	1580.668210322
154	71278	158	1582.8210707344
154	72000	159	1585.1899028104
154	72723	160	1587.2791834306
154	73446	161	1589.0882926155
154	74189	162	1590.6603216352
154	74932	163	1591.7171454355
154	75675	164	1592.1644026786
154	76437	165	1592.4247364402
154	77200	166	1592.4247418176
154	77963	167	1592.4247418176
154	78726	168	1592.4247418176
154	79489	169	1592.4247418176
154	80252	170	1592.4247418176
154	81015	171	1592.4247418176
154	84651	172	1592.4247418176
155	68508	154	0.68736946028878
155	69190	155	-0.4223276353406
155	69873	156	-0.50454617071552
155	70575	157	-0.52561824335391
155	71278	158	-0.33582785968669
155	72000	159	-0.48921067960352
155	72723	160	-0.27071616466419
155	73446	161	-0.26834339296549
155	74189	162	-1.7245563018053
155	74932	163	0
155	75675	164	0
155	76437	165	0
155	77200	166	0
155	77963	167	0
155	78726	168	0
155	79489	169	0
155	80252	170	0
155	81015	171	0
155	84651	172	0
156	68508	154	2.0899842998397
156	69190	155	0.973
156	69873	156	0.973
156	70575	157	0.973
156	71278	158	0.973
156	72000	159	0.973
156	72723	160	0.973
156	73446	161	0.973
156	74189	162	0.973
156	74932	163	0.973
156	75675	164	0.973
156	76437	165	0.973
156	77200	166	0.973
156	77963	167	0.973
156	78726	168	0.973
156	79489	169	0.973
156	80252	170	0.973
156	81015	171	0.973
156	84651	172	0.973
157	69190	155	3.7021292532366
157	69873	156	3.9797253557802
157	70575	157	3.5482089109622
157	71278	158	3.1627134653437
157	72000	159	2.7926773280845
157	72723	160	2.4047580224183
157	73446	161	2.07157943856
157	74189	162	0.98639326839808
157	74932	163	0.43847583845083
157	75675	164	0.0044910395949127
157	76437	165	0
157	77200	166	0
157	77963	167	0
157	78726	168	0
157	79489	169	0
157	80252	170	0
157	81015	171	0
157	84651	172	0
158	69873	156	2415.4023794404
158	70575	157	2415.4023794404
158	71278	158	2413.0141087465
158	72000	159	2409.9858826875
158	72723	160	2407.2228022144
158	73446	161	2405.2566798392
158	74189	162	2403.5044875053
158	74932	163	2402.0244970327
158	75675	164	2401.0226279108
158	76437	165	2400.412561713
158	77200	166	2400.0694835854
158	77963	167	2399.9420744174
158	78726	168	2399.9420744174
158	79489	169	2399.9420744174
158	80252	170	2399.9420744174
158	81015	171	2399.9420744174
158	84651	172	2399.9420744174
159	69873	156	1578.2576630944
159	70575	157	1578.2576630944
159	71278	158	1579.134623629
159	72000	159	1580.246572434
159	72723	160	1581.491792147
159	73446	161	1583.48320325
159	74189	162	1585.2579326928
159	74932	163	1586.7569591496
159	75675	164	1587.7717145476
159	76437	165	1588.38962756
159	77200	166	1588.7371184388
159	77963	167	1588.8661663737
159	78726	168	1588.8661663737
159	79489	169	1588.8661663737
159	80252	170	1588.8661663737
159	81015	171	1588.8661663737
159	84651	172	1588.8661663737
160	69873	156	0.27759610254362
160	70575	157	-0.43151644481795
160	71278	158	-0.38549544561852
160	72000	159	-0.37003613725924
160	72723	160	-0.38791930566619
160	73446	161	-0.33317858385825
160	74189	162	-1.085186170162
160	74932	163	-0.54791742994725
160	75675	164	-0.43398479885592
160	76437	165	-0.0044910395949127
160	77200	166	0
160	77963	167	0
160	78726	168	0
160	79489	169	0
160	80252	170	0
160	81015	171	0
160	84651	172	0
161	69873	156	1.574051008603
161	70575	157	0.973
161	71278	158	0.973
161	72000	159	0.973
161	72723	160	0.973
161	73446	161	0.973
161	74189	162	0.973
161	74932	163	0.973
161	75675	164	0.973
161	76437	165	0.973
161	77200	166	0.973
161	77963	167	0.973
161	78726	168	0.973
161	79489	169	0.973
161	80252	170	0.973
161	81015	171	0.973
161	84651	172	0.973
162	70575	157	3.1585482986357
162	71278	158	3.2735211656111
162	72000	159	2.9925320121365
162	72723	160	2.6213049280605
162	73446	161	2.3913293066476
162	74189	162	1.8431654453035
162	74932	163	1.142044471736
162	75675	164	0.71220679351475
162	76437	165	0.43599003167648
162	77200	166	0
162	77963	167	0
162	78726	168	0
162	79489	169	0
162	80252	170	0
162	81015	171	0
162	84651	172	0
163	71278	158	2415.7246252701
163	72000	159	2415.7246252701
163	72723	160	2413.934934368
163	73446	161	2411.5892405402
163	74189	162	2409.2340114665
163	74932	163	2407.1788974408
163	75675	164	2405.834951307
163	76437	165	2404.8288735939
163	77200	166	2404.1532986515
163	77963	167	2403.7248523334
163	78726	168	2403.4554646569
163	79489	169	2403.4554598746
163	80252	170	2403.4554598746
163	81015	171	2403.4554598746
163	84651	172	2403.4554598746
164	71278	158	1578.1393361082
164	72000	159	1578.1393361082
164	72723	160	1578.7965012668
164	73446	161	1579.6578277983
164	74189	162	1580.5226556221
164	74932	163	1581.536261634
164	75675	164	1582.8974939184
164	76437	165	1583.9165120395
164	77200	166	1584.6007763855
164	77963	167	1585.0347334808
164	78726	168	1585.3075860841
164	79489	169	1585.3075909279
164	80252	170	1585.3075909279
164	81015	171	1585.3075909279
164	84651	172	1585.3075909279
165	71278	158	0.11497286697541
165	72000	159	-0.28098915347464
165	72723	160	-0.37122708407604
165	73446	161	-0.2299756214129
165	74189	162	-0.5481638613441
165	74932	163	-0.70112097356745
165	75675	164	-0.42983767822126
165	76437	165	-0.27621676183827
165	77200	166	-0.43599003167648
165	77963	167	0
165	78726	168	0
165	79489	169	0
165	80252	170	0
165	81015	171	0
165	84651	172	0
166	71278	158	1.3618594401005
166	72000	159	0.973
166	72723	160	0.973
166	73446	161	0.973
166	74189	162	0.973
166	74932	163	0.973
166	75675	164	0.973
166	76437	165	0.973
166	77200	166	0.973
166	77963	167	0.973
166	78726	168	0.973
166	79489	169	0.973
166	80252	170	0.973
166	81015	171	0.973
166	84651	172	0.973
167	72000	159	2.4078796894823
167	72723	160	2.5631355156792
167	73446	161	2.4242476969956
167	74189	162	2.2196099375136
167	74932	163	1.7327897136963
167	75675	164	1.2175987801353
167	76437	165	0.76916540357765
167	77200	166	0.44107530933805
167	77963	167	0.0063763786695946
167	78726	168	0
167	79489	169	0
167	80252	170	0
167	81015	171	0
167	84651	172	0
168	72723	160	0.15525582619687
168	73446	161	-0.13888781868361
168	74189	162	-0.20463775948199
168	74932	163	-0.48682022381723
168	75675	164	-0.51519093356108
168	76437	165	-0.4484333765576
168	77200	166	-0.32809009423961
168	77963	167	-0.43469893066845
168	78726	168	-0.0063763786695946
168	79489	169	0
168	80252	170	0
168	81015	171	0
168	84651	172	0
169	72723	160	1.3311051745714
169	73446	161	0.973
169	74189	162	0.973
169	74932	163	0.973
169	75675	164	0.973
169	76437	165	0.973
169	77200	166	0.973
169	77963	167	0.973
169	78726	168	0.973
169	79489	169	0.973
169	80252	170	0.973
169	81015	171	0.973
169	84651	172	0.973
170	73446	161	2415.1210481593
170	74189	162	2415.1210481593
170	74932	163	2413.4706591835
170	75675	164	2411.7033387643
170	76437	165	2410.1369716839
170	77200	166	2408.8653979822
170	77963	167	2407.9281532636
170	78726	168	2407.3573034171
170	79489	169	2407.042132988
170	80252	170	2406.9688455762
170	81015	171	2406.9688455762
170	84651	172	2406.9688455762
171	73446	161	1578.3609664729
171	74189	162	1578.3609664729
171	74932	163	1578.9669806911
171	75675	164	1579.6159315258
171	76437	165	1580.1910933424
171	77200	166	1580.6580085699
171	77963	167	1581.0021599382
171	78726	168	1581.3555609584
171	79489	169	1581.6747851837
171	80252	170	1581.7490152353
171	81015	171	1581.7490152353
171	84651	172	1581.7490152353
172	74189	162	1.9123705396783
172	74932	163	1.8326824633093
172	75675	164	1.564871867305
172	76437	165	1.1763822011904
172	77200	166	0.82963015352086
172	77963	167	0.57103387996134
172	78726	168	0.42889736495737
172	79489	169	0
172	80252	170	0
172	81015	171	0
172	84651	172	0
173	74932	163	-0.079688076369032
173	75675	164	-0.26781059600433
173	76437	165	-0.38848966611456
173	77200	166	-0.34675204766957
173	77963	167	-0.25859627355952
173	78726	168	-0.14213651500396
173	79489	169	-0.42889736495737
173	80252	170	0
173	81015	171	0
173	84651	172	0
174	74932	163	1.163780889485
174	75675	164	0.973
174	76437	165	0.973
174	77200	166	0.973
174	77963	167	0.973
174	78726	168	0.973
174	79489	169	0.973
174	80252	170	0.973
174	81015	171	0.973
174	84651	172	0.973
175	75675	164	2415.5330374953
175	76437	165	2415.5330374953
175	77200	166	2414.594094541
175	77963	167	2413.601019699
175	78726	168	2412.7511854939
175	79489	169	2412.1217491133
175	80252	170	2411.6634110904
175	81015	171	2411.4576996993
175	84651	172	2411.4576996993
176	75675	164	1578.2096861387
176	76437	165	1578.2096861387
176	77200	166	1578.5544610918
176	77963	167	1578.9191129906
176	78726	168	1579.231167675
176	79489	169	1579.4622934293
176	80252	170	1579.6305927588
176	81015	171	1579.7061289083
176	84651	172	1579.7061289083
177	76437	165	1.081737327148
177	77200	166	1.0078994566956
177	77963	167	0.81992911218318
177	78726	168	0.58550703624254
177	79489	169	0.44803495061235
177	80252	170	0
177	81015	171	0
177	84651	172	0
178	77200	166	-0.073837870452384
178	77963	167	-0.18797034451241
178	78726	168	-0.23442207594064
178	79489	169	-0.1374720856302
178	80252	170	-0.44803495061235
178	81015	171	0
178	84651	172	0
179	77200	166	1.1407801582066
179	77963	167	0.973
179	78726	168	0.973
179	79489	169	0.973
179	80252	170	0.973
179	81015	171	0.973
179	84651	172	0.973

